Using: /cad/synopsys/Hspice/G-2012.06/hspice/linux/hspice gummel_nmos.sp
 ****** HSPICE -- G-2012.06 32-BIT (May 27 2012) RHEL32 ******                  
  Copyright (C) 2012 Synopsys, Inc. All Rights Reserved.                        
  Unpublished-rights reserved under US copyright laws.
  This program is protected by law and is subject to the
  terms and conditions of the license agreement from Synopsys.
  Use of this program is your acceptance to be bound by the
  license agreement. HSPICE is the trademark of Synopsys, Inc.
  Input File: gummel_nmos.sp                                                    
  Command line options: gummel_nmos.sp
 lic: No 'setenv LM_LICENSE_FILE' in current environment' 
 lic:  
 lic: FLEXlm: v10.8 
 lic: USER:   agarwalh             HOSTNAME: xcel1.vlsi.iitk.ac.in 
 lic: HOSTID: 0008a1953eea         PID:      805 
 lic: Using FLEXlm license file: 
 lic: 27000@xcel0 
 lic: Checkout 1 hspice 
 lic: License/Maintenance for hspice will expire on 15-jun-2013/2011.09 
 lic: 1(in_use)/5(total) FLOATING license(s) on SERVER xcel0 
 lic:   
 Init: read install configuration file: /cad/synopsys/Hspice/G-2012.06/hspice/meta.cfg


 --------------------------------------------------------
|                                                        |
|          Synopsys Unified Verilog-A (pVA v2.0)         |
|                                                        |
|           Machine Name: xcel1.vlsi.iitk.ac.in          |
| Copyright (c) 2011 Synopsys Inc., All Rights Reserved. |
|                                                        |
 --------------------------------------------------------

libepva built by pvamgr synmake_pva_build  on Tue May  1 20:03:16 PDT 2012
HSP_HOME:   /cad/synopsys/Hspice/G-2012.06/hspice
HSP_ARCH:   linux
HSP_GCC :   /cad/synopsys/Hspice/G-2012.06/hspice/GNU/amd64/gcc-4.5.2-static/bin/gcc -m32 
HSP_GCC_VER:   4.5.2
Working-Dir: /users/phd/agarwalh/synopsys_designs/BSIM6/QA/BSIM6 Release/Release_5_May
Args:        -p hsp -t spi -f gummel_nmos.pvadir/pvaHDL.lis -o gummel_nmos.pvadir 


Begin of pVA compiling on Sun May  5 21:44:02 2013

Parsing './bsim6.va'
Parsing include file '/cad/synopsys/Hspice/G-2012.06/hspice/include/constants.vams'
Parsing include file '/cad/synopsys/Hspice/G-2012.06/hspice/include/disciplines.vams'

End of pVA compiling on Sun May  5 21:44:02 2013


End of build pVA DB on Sun May  5 21:44:02 2013

*pvaI* Module (bsim6): 4 unexpanded port, 0 init, 2191 behav, 65 contrib, 43/2272 expr(s)
*pvaI* Resizing DB size for v count = 1
*pvaI*        Has DIS (SB), 3 afCount
*pvaI*        0 const-G and 0 const-C, Has switch branch.
*pvaI* Module (bsim6): generated 7 flow node(s) during compilation.

End of pVA genC on Sun May  5 21:44:04 2013

*pvaI* #### Total 316 line-size(s), 43 expr(s), 65 contr(s), 0 init(s), 2191 behav(s), 4 port(s)

Generating gummel_nmos.pvadir/pvaRTL_linux.so


End of submitting pVA gummel_nmos.pvadir/pvaRTL.mak on Sun May  5 21:44:14 2013


End of pVA elaboration on Sun May  5 21:44:14 2013

 Loading pVA library gummel_nmos.pvadir/pvaRTL_linux.so...
1****** HSPICE -- G-2012.06 32-BIT (May 27 2012) RHEL32 ******                  
 ******  
 *sample netlist for bsim6.0

  ******  circuit name directory
 circuit number to circuit name directory
   number circuitname                     definition         multiplier
        0 main circuit
        1 x1.                             bsim6(va)          1.00 
*pvaI* Creating Verilog-A module 'bsim6' for X1
  
      
 *****************************************************************
 ******  option summary
 ******
 runlvl  = 3         bypass  = 2         
  Opening plot unit= 15
 file=gummel_nmos.pa0                                                          

 ******  
 *sample netlist for bsim6.0

  ******  dc transfer curves tnom=  25.000 temp=  25.000 *****

   *** source        0:vgate =    0.            ***

x

        volt    param        param        param        param      
                    ids          gx           gx2          gx3    
   -0.10000    -1.947e-11      0.           0.           0.       
 -9.9000e-02   -1.874e-11   -1.947e-08      0.           0.       
 -9.8000e-02   -1.803e-11    7.346e-10   -1.947e-05      0.       
 -9.7000e-02   -1.735e-11    7.069e-10    2.020e-05   -1.947e-02  
 -9.6000e-02   -1.669e-11    6.803e-10   -2.768e-08    3.968e-02  
 -9.5000e-02   -1.606e-11    6.547e-10   -2.663e-08   -2.023e-02  
 -9.4000e-02   -1.546e-11    6.300e-10   -2.563e-08    1.045e-06  
 -9.3000e-02   -1.487e-11    6.063e-10   -2.466e-08    1.006e-06  
 -9.2000e-02   -1.431e-11    5.834e-10   -2.373e-08    9.677e-07  
 -9.1000e-02   -1.377e-11    5.615e-10   -2.283e-08    9.313e-07  
 -9.0000e-02   -1.325e-11    5.403e-10   -2.197e-08    8.963e-07  
 -8.9000e-02   -1.275e-11    5.200e-10   -2.114e-08    8.626e-07  
 -8.8000e-02   -1.227e-11    5.004e-10   -2.034e-08    8.302e-07  
 -8.7000e-02   -1.181e-11    4.816e-10   -1.957e-08    7.989e-07  
 -8.6000e-02   -1.136e-11    4.635e-10   -1.883e-08    7.689e-07  
 -8.5000e-02   -1.093e-11    4.460e-10   -1.812e-08    7.400e-07  
 -8.4000e-02   -1.052e-11    4.293e-10   -1.743e-08    7.122e-07  
 -8.3000e-02   -1.012e-11    4.131e-10   -1.677e-08    6.854e-07  
 -8.2000e-02   -9.738e-12    3.976e-10   -1.614e-08    6.597e-07  
 -8.1000e-02   -9.370e-12    3.827e-10   -1.553e-08    6.349e-07  
 -8.0000e-02   -9.015e-12    3.683e-10   -1.494e-08    6.111e-07  
 -7.9000e-02   -8.674e-12    3.544e-10   -1.437e-08    5.881e-07  
 -7.8000e-02   -8.346e-12    3.411e-10   -1.383e-08    5.660e-07  
 -7.7000e-02   -8.030e-12    3.283e-10   -1.331e-08    5.447e-07  
 -7.6000e-02   -7.726e-12    3.160e-10   -1.280e-08    5.243e-07  
 -7.5000e-02   -7.433e-12    3.042e-10   -1.232e-08    5.046e-07  
 -7.4000e-02   -7.151e-12    2.928e-10   -1.185e-08    4.856e-07  
 -7.3000e-02   -6.880e-12    2.818e-10   -1.140e-08    4.674e-07  
 -7.2000e-02   -6.619e-12    2.713e-10   -1.097e-08    4.498e-07  
 -7.1000e-02   -6.367e-12    2.611e-10   -1.055e-08    4.329e-07  
 -7.0000e-02   -6.125e-12    2.514e-10   -1.015e-08    4.167e-07  
 -6.9000e-02   -5.892e-12    2.420e-10   -9.762e-09    4.010e-07  
 -6.8000e-02   -5.668e-12    2.329e-10   -9.390e-09    3.859e-07  
 -6.7000e-02   -5.452e-12    2.242e-10   -9.033e-09    3.715e-07  
 -6.6000e-02   -5.244e-12    2.159e-10   -8.689e-09    3.575e-07  
 -6.5000e-02   -5.044e-12    2.078e-10   -8.358e-09    3.441e-07  
 -6.4000e-02   -4.852e-12    2.001e-10   -8.039e-09    3.312e-07  
 -6.3000e-02   -4.666e-12    1.927e-10   -7.732e-09    3.188e-07  
 -6.2000e-02   -4.487e-12    1.855e-10   -7.437e-09    3.068e-07  
 -6.1000e-02   -4.315e-12    1.786e-10   -7.152e-09    2.953e-07  
 -6.0000e-02   -4.150e-12    1.720e-10   -6.879e-09    2.843e-07  
 -5.9000e-02   -3.990e-12    1.657e-10   -6.615e-09    2.737e-07  
 -5.8000e-02   -3.836e-12    1.596e-10   -6.362e-09    2.635e-07  
 -5.7000e-02   -3.688e-12    1.537e-10   -6.117e-09    2.536e-07  
 -5.6000e-02   -3.546e-12    1.480e-10   -5.882e-09    2.442e-07  
 -5.5000e-02   -3.409e-12    1.426e-10   -5.656e-09    2.351e-07  
 -5.4000e-02   -3.276e-12    1.374e-10   -5.438e-09    2.264e-07  
 -5.3000e-02   -3.149e-12    1.323e-10   -5.228e-09    2.181e-07  
 -5.2000e-02   -3.026e-12    1.275e-10   -5.025e-09    2.100e-07  
 -5.1000e-02   -2.907e-12    1.229e-10   -4.831e-09    2.023e-07  
 -5.0000e-02   -2.793e-12    1.184e-10   -4.643e-09    1.949e-07  
 -4.9000e-02   -2.683e-12    1.141e-10   -4.462e-09    1.877e-07  
 -4.8000e-02   -2.577e-12    1.100e-10   -4.288e-09    1.809e-07  
 -4.7000e-02   -2.475e-12    1.060e-10   -4.120e-09    1.743e-07  
 -4.6000e-02   -2.377e-12    1.022e-10   -3.958e-09    1.680e-07  
 -4.5000e-02   -2.282e-12    9.857e-11   -3.802e-09    1.619e-07  
 -4.4000e-02   -2.190e-12    9.507e-11   -3.651e-09    1.561e-07  
 -4.3000e-02   -2.101e-12    9.170e-11   -3.506e-09    1.505e-07  
 -4.2000e-02   -2.016e-12    8.847e-11   -3.366e-09    1.451e-07  
 -4.1000e-02   -1.934e-12    8.537e-11   -3.231e-09    1.400e-07  
 -4.0000e-02   -1.854e-12    8.239e-11   -3.101e-09    1.350e-07  
 -3.9000e-02   -1.777e-12    7.954e-11   -2.975e-09    1.303e-07  
 -3.8000e-02   -1.703e-12    7.680e-11   -2.854e-09    1.257e-07  
 -3.7000e-02   -1.631e-12    7.418e-11   -2.737e-09    1.214e-07  
 -3.6000e-02   -1.562e-12    7.166e-11   -2.623e-09    1.172e-07  
 -3.5000e-02   -1.495e-12    6.926e-11   -2.514e-09    1.131e-07  
 -3.4000e-02   -1.430e-12    6.695e-11   -2.409e-09    1.093e-07  
 -3.3000e-02   -1.368e-12    6.474e-11   -2.306e-09    1.056e-07  
 -3.2000e-02   -1.307e-12    6.263e-11   -2.208e-09    1.021e-07  
 -3.1000e-02   -1.249e-12    6.061e-11   -2.112e-09    9.869e-08  
 -3.0000e-02   -1.192e-12    5.868e-11   -2.020e-09    9.545e-08  
 -2.9000e-02   -1.137e-12    5.683e-11   -1.931e-09    9.236e-08  
 -2.8000e-02   -1.083e-12    5.507e-11   -1.844e-09    8.939e-08  
 -2.7000e-02   -1.031e-12    5.340e-11   -1.760e-09    8.656e-08  
 -2.6000e-02   -9.812e-13    5.180e-11   -1.679e-09    8.385e-08  
 -2.5000e-02   -9.323e-13    5.027e-11   -1.600e-09    8.127e-08  
 -2.4000e-02   -8.849e-13    4.882e-11   -1.524e-09    7.880e-08  
 -2.3000e-02   -8.388e-13    4.745e-11   -1.449e-09    7.645e-08  
 -2.2000e-02   -7.939e-13    4.614e-11   -1.377e-09    7.421e-08  
 -2.1000e-02   -7.501e-13    4.490e-11   -1.307e-09    7.208e-08  
 -2.0000e-02   -7.075e-13    4.373e-11   -1.239e-09    7.005e-08  
 -1.9000e-02   -6.659e-13    4.262e-11   -1.173e-09    6.813e-08  
 -1.8000e-02   -6.254e-13    4.157e-11   -1.108e-09    6.631e-08  
 -1.7000e-02   -5.857e-13    4.059e-11   -1.045e-09    6.458e-08  
 -1.6000e-02   -5.469e-13    3.966e-11   -9.839e-10    6.295e-08  
 -1.5000e-02   -5.089e-13    3.880e-11   -9.240e-10    6.141e-08  
 -1.4000e-02   -4.717e-13    3.799e-11   -8.654e-10    5.996e-08  
 -1.3000e-02   -4.351e-13    3.724e-11   -8.081e-10    5.860e-08  
 -1.2000e-02   -3.992e-13    3.654e-11   -7.519e-10    5.732e-08  
 -1.1000e-02   -3.639e-13    3.590e-11   -6.969e-10    5.613e-08  
 -1.0000e-02   -3.291e-13    3.531e-11   -6.429e-10    5.502e-08  
 -9.0000e-03   -2.949e-13    3.477e-11   -5.899e-10    5.399e-08  
 -8.0000e-03   -2.610e-13    3.429e-11   -5.377e-10    5.304e-08  
 -7.0000e-03   -2.275e-13    3.385e-11   -4.863e-10    5.217e-08  
 -6.0000e-03   -1.944e-13    3.346e-11   -4.357e-10    5.138e-08  
 -5.0000e-03   -1.616e-13    3.313e-11   -3.857e-10    5.066e-08  
 -4.0000e-03   -1.290e-13    3.284e-11   -3.362e-10    5.001e-08  
 -3.0000e-03   -9.657e-14    3.260e-11   -2.873e-10    4.944e-08  
 -2.0000e-03   -6.430e-14    3.241e-11   -2.387e-10    4.895e-08  
 -1.0000e-03   -3.213e-14    3.227e-11   -1.906e-10    4.852e-08  
    0.            0.         3.217e-11   -1.427e-10    4.817e-08  
  1.0000e-03    3.213e-14    3.213e-11   -9.501e-11    4.789e-08  
  2.0000e-03    6.430e-14    3.213e-11   -4.747e-11    4.768e-08  
  3.0000e-03    9.657e-14    3.217e-11      0.         4.754e-08  
  4.0000e-03    1.290e-13    3.227e-11    4.747e-11    4.747e-08  
  5.0000e-03    1.616e-13    3.241e-11    9.501e-11    4.747e-08  
  6.0000e-03    1.944e-13    3.260e-11    1.427e-10    4.754e-08  
  7.0000e-03    2.275e-13    3.284e-11    1.906e-10    4.768e-08  
  8.0000e-03    2.610e-13    3.313e-11    2.387e-10    4.789e-08  
  9.0000e-03    2.949e-13    3.346e-11    2.873e-10    4.817e-08  
  1.0000e-02    3.291e-13    3.385e-11    3.362e-10    4.852e-08  
  1.1000e-02    3.639e-13    3.429e-11    3.857e-10    4.895e-08  
  1.2000e-02    3.992e-13    3.477e-11    4.357e-10    4.944e-08  
  1.3000e-02    4.351e-13    3.531e-11    4.863e-10    5.001e-08  
  1.4000e-02    4.717e-13    3.590e-11    5.377e-10    5.066e-08  
  1.5000e-02    5.089e-13    3.654e-11    5.899e-10    5.138e-08  
  1.6000e-02    5.469e-13    3.724e-11    6.429e-10    5.217e-08  
  1.7000e-02    5.857e-13    3.799e-11    6.969e-10    5.304e-08  
  1.8000e-02    6.254e-13    3.880e-11    7.519e-10    5.399e-08  
  1.9000e-02    6.659e-13    3.966e-11    8.081e-10    5.502e-08  
  2.0000e-02    7.075e-13    4.059e-11    8.654e-10    5.613e-08  
  2.1000e-02    7.501e-13    4.157e-11    9.240e-10    5.732e-08  
  2.2000e-02    7.939e-13    4.262e-11    9.839e-10    5.860e-08  
  2.3000e-02    8.388e-13    4.373e-11    1.045e-09    5.996e-08  
  2.4000e-02    8.849e-13    4.490e-11    1.108e-09    6.141e-08  
  2.5000e-02    9.323e-13    4.614e-11    1.173e-09    6.295e-08  
  2.6000e-02    9.812e-13    4.745e-11    1.239e-09    6.458e-08  
  2.7000e-02    1.031e-12    4.882e-11    1.307e-09    6.631e-08  
  2.8000e-02    1.083e-12    5.027e-11    1.377e-09    6.813e-08  
  2.9000e-02    1.137e-12    5.180e-11    1.449e-09    7.005e-08  
  3.0000e-02    1.192e-12    5.340e-11    1.524e-09    7.208e-08  
  3.1000e-02    1.249e-12    5.507e-11    1.600e-09    7.421e-08  
  3.2000e-02    1.307e-12    5.683e-11    1.679e-09    7.645e-08  
  3.3000e-02    1.368e-12    5.868e-11    1.760e-09    7.880e-08  
  3.4000e-02    1.430e-12    6.061e-11    1.844e-09    8.127e-08  
  3.5000e-02    1.495e-12    6.263e-11    1.931e-09    8.385e-08  
  3.6000e-02    1.562e-12    6.474e-11    2.020e-09    8.656e-08  
  3.7000e-02    1.631e-12    6.695e-11    2.112e-09    8.939e-08  
  3.8000e-02    1.703e-12    6.926e-11    2.208e-09    9.236e-08  
  3.9000e-02    1.777e-12    7.166e-11    2.306e-09    9.545e-08  
  4.0000e-02    1.854e-12    7.418e-11    2.409e-09    9.869e-08  
  4.1000e-02    1.934e-12    7.680e-11    2.514e-09    1.021e-07  
  4.2000e-02    2.016e-12    7.954e-11    2.623e-09    1.056e-07  
  4.3000e-02    2.101e-12    8.239e-11    2.737e-09    1.093e-07  
  4.4000e-02    2.190e-12    8.537e-11    2.854e-09    1.131e-07  
  4.5000e-02    2.282e-12    8.847e-11    2.975e-09    1.172e-07  
  4.6000e-02    2.377e-12    9.170e-11    3.101e-09    1.214e-07  
  4.7000e-02    2.475e-12    9.507e-11    3.231e-09    1.257e-07  
  4.8000e-02    2.577e-12    9.857e-11    3.366e-09    1.303e-07  
  4.9000e-02    2.683e-12    1.022e-10    3.506e-09    1.350e-07  
  5.0000e-02    2.793e-12    1.060e-10    3.651e-09    1.400e-07  
  5.1000e-02    2.907e-12    1.100e-10    3.802e-09    1.451e-07  
  5.2000e-02    3.026e-12    1.141e-10    3.958e-09    1.505e-07  
  5.3000e-02    3.149e-12    1.184e-10    4.120e-09    1.561e-07  
  5.4000e-02    3.276e-12    1.229e-10    4.288e-09    1.619e-07  
  5.5000e-02    3.409e-12    1.275e-10    4.462e-09    1.680e-07  
  5.6000e-02    3.546e-12    1.323e-10    4.643e-09    1.743e-07  
  5.7000e-02    3.688e-12    1.374e-10    4.831e-09    1.809e-07  
  5.8000e-02    3.836e-12    1.426e-10    5.025e-09    1.877e-07  
  5.9000e-02    3.990e-12    1.480e-10    5.228e-09    1.949e-07  
  6.0000e-02    4.150e-12    1.537e-10    5.438e-09    2.023e-07  
  6.1000e-02    4.315e-12    1.596e-10    5.656e-09    2.100e-07  
  6.2000e-02    4.487e-12    1.657e-10    5.882e-09    2.181e-07  
  6.3000e-02    4.666e-12    1.720e-10    6.117e-09    2.264e-07  
  6.4000e-02    4.852e-12    1.786e-10    6.362e-09    2.351e-07  
  6.5000e-02    5.044e-12    1.855e-10    6.615e-09    2.442e-07  
  6.6000e-02    5.244e-12    1.927e-10    6.879e-09    2.536e-07  
  6.7000e-02    5.452e-12    2.001e-10    7.152e-09    2.635e-07  
  6.8000e-02    5.668e-12    2.078e-10    7.437e-09    2.737e-07  
  6.9000e-02    5.892e-12    2.159e-10    7.732e-09    2.843e-07  
  7.0000e-02    6.125e-12    2.242e-10    8.039e-09    2.953e-07  
  7.1000e-02    6.367e-12    2.329e-10    8.358e-09    3.068e-07  
  7.2000e-02    6.619e-12    2.420e-10    8.689e-09    3.188e-07  
  7.3000e-02    6.880e-12    2.514e-10    9.033e-09    3.312e-07  
  7.4000e-02    7.151e-12    2.611e-10    9.390e-09    3.441e-07  
  7.5000e-02    7.433e-12    2.713e-10    9.762e-09    3.575e-07  
  7.6000e-02    7.726e-12    2.818e-10    1.015e-08    3.715e-07  
  7.7000e-02    8.030e-12    2.928e-10    1.055e-08    3.859e-07  
  7.8000e-02    8.346e-12    3.042e-10    1.097e-08    4.010e-07  
  7.9000e-02    8.674e-12    3.160e-10    1.140e-08    4.167e-07  
  8.0000e-02    9.015e-12    3.283e-10    1.185e-08    4.329e-07  
  8.1000e-02    9.370e-12    3.411e-10    1.232e-08    4.498e-07  
  8.2000e-02    9.738e-12    3.544e-10    1.280e-08    4.674e-07  
  8.3000e-02    1.012e-11    3.683e-10    1.331e-08    4.856e-07  
  8.4000e-02    1.052e-11    3.827e-10    1.383e-08    5.046e-07  
  8.5000e-02    1.093e-11    3.976e-10    1.437e-08    5.243e-07  
  8.6000e-02    1.136e-11    4.131e-10    1.494e-08    5.447e-07  
  8.7000e-02    1.181e-11    4.293e-10    1.553e-08    5.660e-07  
  8.8000e-02    1.227e-11    4.460e-10    1.614e-08    5.881e-07  
  8.9000e-02    1.275e-11    4.635e-10    1.677e-08    6.111e-07  
  9.0000e-02    1.325e-11    4.816e-10    1.743e-08    6.349e-07  
  9.1000e-02    1.377e-11    5.004e-10    1.812e-08    6.597e-07  
  9.2000e-02    1.431e-11    5.200e-10    1.883e-08    6.854e-07  
  9.3000e-02    1.487e-11    5.403e-10    1.957e-08    7.122e-07  
  9.4000e-02    1.546e-11    5.615e-10    2.034e-08    7.400e-07  
  9.5000e-02    1.606e-11    5.834e-10    2.114e-08    7.689e-07  
  9.6000e-02    1.669e-11    6.063e-10    2.197e-08    7.989e-07  
  9.7000e-02    1.735e-11    6.300e-10    2.283e-08    8.302e-07  
  9.8000e-02    1.803e-11    6.547e-10    2.373e-08    8.626e-07  
  9.9000e-02    1.874e-11    6.803e-10    2.466e-08    8.963e-07  
    0.10000     1.947e-11    7.069e-10    2.563e-08    9.313e-07  
y
x

        volt    param      
                    gx4    
   -0.10000       0.       
 -9.9000e-02      0.       
 -9.8000e-02      0.       
 -9.7000e-02      0.       
 -9.6000e-02    -19.4703   
 -9.5000e-02     59.1455   
 -9.4000e-02    -59.9078   
 -9.3000e-02     20.2336   
 -9.2000e-02   -3.932e-05  
 -9.1000e-02   -3.784e-05  
 -9.0000e-02   -3.641e-05  
 -8.9000e-02   -3.503e-05  
 -8.8000e-02   -3.371e-05  
 -8.7000e-02   -3.244e-05  
 -8.6000e-02   -3.121e-05  
 -8.5000e-02   -3.003e-05  
 -8.4000e-02   -2.890e-05  
 -8.3000e-02   -2.781e-05  
 -8.2000e-02   -2.676e-05  
 -8.1000e-02   -2.575e-05  
 -8.0000e-02   -2.478e-05  
 -7.9000e-02   -2.385e-05  
 -7.8000e-02   -2.295e-05  
 -7.7000e-02   -2.209e-05  
 -7.6000e-02   -2.126e-05  
 -7.5000e-02   -2.046e-05  
 -7.4000e-02   -1.969e-05  
 -7.3000e-02   -1.896e-05  
 -7.2000e-02   -1.824e-05  
 -7.1000e-02   -1.756e-05  
 -7.0000e-02   -1.690e-05  
 -6.9000e-02   -1.627e-05  
 -6.8000e-02   -1.565e-05  
 -6.7000e-02   -1.506e-05  
 -6.6000e-02   -1.450e-05  
 -6.5000e-02   -1.395e-05  
 -6.4000e-02   -1.342e-05  
 -6.3000e-02   -1.291e-05  
 -6.2000e-02   -1.242e-05  
 -6.1000e-02   -1.194e-05  
 -6.0000e-02   -1.149e-05  
 -5.9000e-02   -1.104e-05  
 -5.8000e-02   -1.062e-05  
 -5.7000e-02   -1.021e-05  
 -5.6000e-02   -9.814e-06  
 -5.5000e-02   -9.433e-06  
 -5.4000e-02   -9.066e-06  
 -5.3000e-02   -8.713e-06  
 -5.2000e-02   -8.372e-06  
 -5.1000e-02   -8.044e-06  
 -5.0000e-02   -7.729e-06  
 -4.9000e-02   -7.425e-06  
 -4.8000e-02   -7.132e-06  
 -4.7000e-02   -6.851e-06  
 -4.6000e-02   -6.580e-06  
 -4.5000e-02   -6.319e-06  
 -4.4000e-02   -6.068e-06  
 -4.3000e-02   -5.826e-06  
 -4.2000e-02   -5.594e-06  
 -4.1000e-02   -5.370e-06  
 -4.0000e-02   -5.154e-06  
 -3.9000e-02   -4.946e-06  
 -3.8000e-02   -4.746e-06  
 -3.7000e-02   -4.553e-06  
 -3.6000e-02   -4.368e-06  
 -3.5000e-02   -4.189e-06  
 -3.4000e-02   -4.016e-06  
 -3.3000e-02   -3.849e-06  
 -3.2000e-02   -3.689e-06  
 -3.1000e-02   -3.534e-06  
 -3.0000e-02   -3.384e-06  
 -2.9000e-02   -3.239e-06  
 -2.8000e-02   -3.099e-06  
 -2.7000e-02   -2.964e-06  
 -2.6000e-02   -2.834e-06  
 -2.5000e-02   -2.707e-06  
 -2.4000e-02   -2.584e-06  
 -2.3000e-02   -2.466e-06  
 -2.2000e-02   -2.351e-06  
 -2.1000e-02   -2.239e-06  
 -2.0000e-02   -2.131e-06  
 -1.9000e-02   -2.025e-06  
 -1.8000e-02   -1.923e-06  
 -1.7000e-02   -1.824e-06  
 -1.6000e-02   -1.727e-06  
 -1.5000e-02   -1.632e-06  
 -1.4000e-02   -1.540e-06  
 -1.3000e-02   -1.450e-06  
 -1.2000e-02   -1.362e-06  
 -1.1000e-02   -1.276e-06  
 -1.0000e-02   -1.192e-06  
 -9.0000e-03   -1.109e-06  
 -8.0000e-03   -1.029e-06  
 -7.0000e-03   -9.491e-07  
 -6.0000e-03   -8.710e-07  
 -5.0000e-03   -7.941e-07  
 -4.0000e-03   -7.183e-07  
 -3.0000e-03   -6.436e-07  
 -2.0000e-03   -5.698e-07  
 -1.0000e-03   -4.967e-07  
    0.         -4.244e-07  
  1.0000e-03   -3.528e-07  
  2.0000e-03   -2.816e-07  
  3.0000e-03   -2.108e-07  
  4.0000e-03   -1.404e-07  
  5.0000e-03   -7.014e-08  
  6.0000e-03    6.551e-19  
  7.0000e-03    7.014e-08  
  8.0000e-03    1.404e-07  
  9.0000e-03    2.108e-07  
  1.0000e-02    2.816e-07  
  1.1000e-02    3.528e-07  
  1.2000e-02    4.244e-07  
  1.3000e-02    4.967e-07  
  1.4000e-02    5.698e-07  
  1.5000e-02    6.436e-07  
  1.6000e-02    7.183e-07  
  1.7000e-02    7.941e-07  
  1.8000e-02    8.710e-07  
  1.9000e-02    9.491e-07  
  2.0000e-02    1.029e-06  
  2.1000e-02    1.109e-06  
  2.2000e-02    1.192e-06  
  2.3000e-02    1.276e-06  
  2.4000e-02    1.362e-06  
  2.5000e-02    1.450e-06  
  2.6000e-02    1.540e-06  
  2.7000e-02    1.632e-06  
  2.8000e-02    1.727e-06  
  2.9000e-02    1.824e-06  
  3.0000e-02    1.923e-06  
  3.1000e-02    2.025e-06  
  3.2000e-02    2.131e-06  
  3.3000e-02    2.239e-06  
  3.4000e-02    2.351e-06  
  3.5000e-02    2.466e-06  
  3.6000e-02    2.584e-06  
  3.7000e-02    2.707e-06  
  3.8000e-02    2.834e-06  
  3.9000e-02    2.964e-06  
  4.0000e-02    3.099e-06  
  4.1000e-02    3.239e-06  
  4.2000e-02    3.384e-06  
  4.3000e-02    3.534e-06  
  4.4000e-02    3.689e-06  
  4.5000e-02    3.849e-06  
  4.6000e-02    4.016e-06  
  4.7000e-02    4.189e-06  
  4.8000e-02    4.368e-06  
  4.9000e-02    4.553e-06  
  5.0000e-02    4.746e-06  
  5.1000e-02    4.946e-06  
  5.2000e-02    5.154e-06  
  5.3000e-02    5.370e-06  
  5.4000e-02    5.594e-06  
  5.5000e-02    5.826e-06  
  5.6000e-02    6.068e-06  
  5.7000e-02    6.319e-06  
  5.8000e-02    6.580e-06  
  5.9000e-02    6.851e-06  
  6.0000e-02    7.132e-06  
  6.1000e-02    7.425e-06  
  6.2000e-02    7.729e-06  
  6.3000e-02    8.044e-06  
  6.4000e-02    8.372e-06  
  6.5000e-02    8.713e-06  
  6.6000e-02    9.066e-06  
  6.7000e-02    9.433e-06  
  6.8000e-02    9.814e-06  
  6.9000e-02    1.021e-05  
  7.0000e-02    1.062e-05  
  7.1000e-02    1.104e-05  
  7.2000e-02    1.149e-05  
  7.3000e-02    1.194e-05  
  7.4000e-02    1.242e-05  
  7.5000e-02    1.291e-05  
  7.6000e-02    1.342e-05  
  7.7000e-02    1.395e-05  
  7.8000e-02    1.450e-05  
  7.9000e-02    1.506e-05  
  8.0000e-02    1.565e-05  
  8.1000e-02    1.627e-05  
  8.2000e-02    1.690e-05  
  8.3000e-02    1.756e-05  
  8.4000e-02    1.824e-05  
  8.5000e-02    1.896e-05  
  8.6000e-02    1.969e-05  
  8.7000e-02    2.046e-05  
  8.8000e-02    2.126e-05  
  8.9000e-02    2.209e-05  
  9.0000e-02    2.295e-05  
  9.1000e-02    2.385e-05  
  9.2000e-02    2.478e-05  
  9.3000e-02    2.575e-05  
  9.4000e-02    2.676e-05  
  9.5000e-02    2.781e-05  
  9.6000e-02    2.890e-05  
  9.7000e-02    3.003e-05  
  9.8000e-02    3.121e-05  
  9.9000e-02    3.244e-05  
    0.10000     3.371e-05  
y
-----------------------------------------------
 ******  
 *sample netlist for bsim6.0

  ******  dc transfer curves tnom=  25.000 temp=  25.000 *****

   *** source        0:vgate =    0.2000        ***

x

        volt    param        param        param        param      
                    ids          gx           gx2          gx3    
   -0.10000    -6.124e-09   -1.947e-10   -7.069e-09   -2.563e-07  
 -9.9000e-02   -5.894e-09   -6.144e-06   -9.016e-07   -3.270e-05  
 -9.8000e-02   -5.673e-09    2.300e-07   -6.144e-03   -8.946e-04  
 -9.7000e-02   -5.460e-09    2.214e-07    6.374e-03     -6.1428   
 -9.6000e-02   -5.255e-09    2.132e-07   -8.588e-06     12.5177   
 -9.5000e-02   -5.057e-09    2.052e-07   -8.269e-06     -6.3825   
 -9.4000e-02   -4.867e-09    1.975e-07   -7.963e-06    3.185e-04  
 -9.3000e-02   -4.684e-09    1.901e-07   -7.667e-06    3.069e-04  
 -9.2000e-02   -4.508e-09    1.830e-07   -7.382e-06    2.958e-04  
 -9.1000e-02   -4.338e-09    1.762e-07   -7.107e-06    2.850e-04  
 -9.0000e-02   -4.175e-09    1.696e-07   -6.843e-06    2.746e-04  
 -8.9000e-02   -4.018e-09    1.633e-07   -6.588e-06    2.646e-04  
 -8.8000e-02   -3.866e-09    1.572e-07   -6.342e-06    2.549e-04  
 -8.7000e-02   -3.721e-09    1.513e-07   -6.105e-06    2.456e-04  
 -8.6000e-02   -3.581e-09    1.456e-07   -5.877e-06    2.366e-04  
 -8.5000e-02   -3.446e-09    1.402e-07   -5.658e-06    2.280e-04  
 -8.4000e-02   -3.316e-09    1.349e-07   -5.446e-06    2.196e-04  
 -8.3000e-02   -3.191e-09    1.299e-07   -5.243e-06    2.115e-04  
 -8.2000e-02   -3.070e-09    1.250e-07   -5.046e-06    2.038e-04  
 -8.1000e-02   -2.955e-09    1.204e-07   -4.857e-06    1.963e-04  
 -8.0000e-02   -2.843e-09    1.159e-07   -4.675e-06    1.891e-04  
 -7.9000e-02   -2.736e-09    1.115e-07   -4.500e-06    1.821e-04  
 -7.8000e-02   -2.632e-09    1.074e-07   -4.331e-06    1.754e-04  
 -7.7000e-02   -2.533e-09    1.033e-07   -4.168e-06    1.689e-04  
 -7.6000e-02   -2.437e-09    9.948e-08   -4.011e-06    1.627e-04  
 -7.5000e-02   -2.345e-09    9.577e-08   -3.860e-06    1.567e-04  
 -7.4000e-02   -2.256e-09    9.219e-08   -3.715e-06    1.509e-04  
 -7.3000e-02   -2.171e-09    8.875e-08   -3.575e-06    1.453e-04  
 -7.2000e-02   -2.089e-09    8.544e-08   -3.440e-06    1.400e-04  
 -7.1000e-02   -2.009e-09    8.226e-08   -3.310e-06    1.348e-04  
 -7.0000e-02   -1.933e-09    7.919e-08   -3.185e-06    1.298e-04  
 -6.9000e-02   -1.860e-09    7.624e-08   -3.065e-06    1.250e-04  
 -6.8000e-02   -1.789e-09    7.341e-08   -2.949e-06    1.204e-04  
 -6.7000e-02   -1.721e-09    7.068e-08   -2.838e-06    1.159e-04  
 -6.6000e-02   -1.655e-09    6.805e-08   -2.730e-06    1.116e-04  
 -6.5000e-02   -1.592e-09    6.552e-08   -2.627e-06    1.075e-04  
 -6.4000e-02   -1.532e-09    6.309e-08   -2.527e-06    1.035e-04  
 -6.3000e-02   -1.473e-09    6.075e-08   -2.431e-06    9.964e-05  
 -6.2000e-02   -1.417e-09    5.850e-08   -2.339e-06    9.595e-05  
 -6.1000e-02   -1.362e-09    5.634e-08   -2.250e-06    9.240e-05  
 -6.0000e-02   -1.310e-09    5.426e-08   -2.164e-06    8.897e-05  
 -5.9000e-02   -1.260e-09    5.225e-08   -2.081e-06    8.568e-05  
 -5.8000e-02   -1.211e-09    5.033e-08   -2.002e-06    8.252e-05  
 -5.7000e-02   -1.165e-09    4.848e-08   -1.925e-06    7.947e-05  
 -5.6000e-02   -1.120e-09    4.670e-08   -1.852e-06    7.654e-05  
 -5.5000e-02   -1.076e-09    4.498e-08   -1.781e-06    7.372e-05  
 -5.4000e-02   -1.035e-09    4.334e-08   -1.712e-06    7.101e-05  
 -5.3000e-02   -9.944e-10    4.176e-08   -1.646e-06    6.841e-05  
 -5.2000e-02   -9.556e-10    4.023e-08   -1.583e-06    6.590e-05  
 -5.1000e-02   -9.183e-10    3.877e-08   -1.522e-06    6.350e-05  
 -5.0000e-02   -8.823e-10    3.737e-08   -1.463e-06    6.118e-05  
 -4.9000e-02   -8.476e-10    3.601e-08   -1.406e-06    5.896e-05  
 -4.8000e-02   -8.141e-10    3.472e-08   -1.351e-06    5.682e-05  
 -4.7000e-02   -7.818e-10    3.347e-08   -1.298e-06    5.477e-05  
 -4.6000e-02   -7.507e-10    3.227e-08   -1.247e-06    5.279e-05  
 -4.5000e-02   -7.207e-10    3.112e-08   -1.198e-06    5.090e-05  
 -4.4000e-02   -6.917e-10    3.001e-08   -1.151e-06    4.908e-05  
 -4.3000e-02   -6.638e-10    2.895e-08   -1.105e-06    4.733e-05  
 -4.2000e-02   -6.368e-10    2.793e-08   -1.061e-06    4.565e-05  
 -4.1000e-02   -6.108e-10    2.695e-08   -1.019e-06    4.404e-05  
 -4.0000e-02   -5.857e-10    2.602e-08   -9.779e-07    4.249e-05  
 -3.9000e-02   -5.615e-10    2.512e-08   -9.383e-07    4.100e-05  
 -3.8000e-02   -5.380e-10    2.425e-08   -9.001e-07    3.957e-05  
 -3.7000e-02   -5.154e-10    2.343e-08   -8.632e-07    3.821e-05  
 -3.6000e-02   -4.935e-10    2.263e-08   -8.276e-07    3.689e-05  
 -3.5000e-02   -4.724e-10    2.187e-08   -7.932e-07    3.563e-05  
 -3.4000e-02   -4.519e-10    2.114e-08   -7.599e-07    3.443e-05  
 -3.3000e-02   -4.322e-10    2.045e-08   -7.277e-07    3.327e-05  
 -3.2000e-02   -4.130e-10    1.978e-08   -6.966e-07    3.216e-05  
 -3.1000e-02   -3.945e-10    1.914e-08   -6.666e-07    3.110e-05  
 -3.0000e-02   -3.765e-10    1.853e-08   -6.375e-07    3.008e-05  
 -2.9000e-02   -3.591e-10    1.795e-08   -6.093e-07    2.911e-05  
 -2.8000e-02   -3.423e-10    1.740e-08   -5.820e-07    2.818e-05  
 -2.7000e-02   -3.259e-10    1.687e-08   -5.556e-07    2.729e-05  
 -2.6000e-02   -3.100e-10    1.636e-08   -5.299e-07    2.644e-05  
 -2.5000e-02   -2.946e-10    1.588e-08   -5.051e-07    2.563e-05  
 -2.4000e-02   -2.796e-10    1.542e-08   -4.810e-07    2.485e-05  
 -2.3000e-02   -2.650e-10    1.499e-08   -4.576e-07    2.411e-05  
 -2.2000e-02   -2.508e-10    1.458e-08   -4.348e-07    2.341e-05  
 -2.1000e-02   -2.370e-10    1.418e-08   -4.127e-07    2.274e-05  
 -2.0000e-02   -2.236e-10    1.381e-08   -3.912e-07    2.210e-05  
 -1.9000e-02   -2.104e-10    1.346e-08   -3.703e-07    2.150e-05  
 -1.8000e-02   -1.976e-10    1.313e-08   -3.499e-07    2.092e-05  
 -1.7000e-02   -1.851e-10    1.282e-08   -3.301e-07    2.038e-05  
 -1.6000e-02   -1.728e-10    1.253e-08   -3.107e-07    1.987e-05  
 -1.5000e-02   -1.608e-10    1.226e-08   -2.917e-07    1.938e-05  
 -1.4000e-02   -1.490e-10    1.200e-08   -2.733e-07    1.892e-05  
 -1.3000e-02   -1.375e-10    1.177e-08   -2.552e-07    1.850e-05  
 -1.2000e-02   -1.262e-10    1.155e-08   -2.374e-07    1.809e-05  
 -1.1000e-02   -1.150e-10    1.134e-08   -2.201e-07    1.772e-05  
 -1.0000e-02   -1.040e-10    1.116e-08   -2.030e-07    1.737e-05  
 -9.0000e-03   -9.317e-11    1.099e-08   -1.863e-07    1.705e-05  
 -8.0000e-03   -8.248e-11    1.083e-08   -1.698e-07    1.675e-05  
 -7.0000e-03   -7.190e-11    1.070e-08   -1.536e-07    1.647e-05  
 -6.0000e-03   -6.144e-11    1.057e-08   -1.376e-07    1.622e-05  
 -5.0000e-03   -5.106e-11    1.047e-08   -1.218e-07    1.600e-05  
 -4.0000e-03   -4.076e-11    1.038e-08   -1.062e-07    1.579e-05  
 -3.0000e-03   -3.052e-11    1.030e-08   -9.072e-08    1.561e-05  
 -2.0000e-03   -2.032e-11    1.024e-08   -7.540e-08    1.546e-05  
 -1.0000e-03   -1.015e-11    1.020e-08   -6.019e-08    1.532e-05  
    0.            0.         1.017e-08   -4.506e-08    1.521e-05  
  1.0000e-03    1.015e-11    1.015e-08   -3.000e-08    1.512e-05  
  2.0000e-03    2.032e-11    1.015e-08   -1.499e-08    1.506e-05  
  3.0000e-03    3.052e-11    1.017e-08   -1.158e-20    1.501e-05  
  4.0000e-03    4.076e-11    1.020e-08    1.499e-08    1.499e-05  
  5.0000e-03    5.106e-11    1.024e-08    3.000e-08    1.499e-05  
  6.0000e-03    6.144e-11    1.030e-08    4.506e-08    1.501e-05  
  7.0000e-03    7.190e-11    1.038e-08    6.019e-08    1.506e-05  
  8.0000e-03    8.248e-11    1.047e-08    7.540e-08    1.512e-05  
  9.0000e-03    9.317e-11    1.057e-08    9.072e-08    1.521e-05  
  1.0000e-02    1.040e-10    1.070e-08    1.062e-07    1.532e-05  
  1.1000e-02    1.150e-10    1.083e-08    1.218e-07    1.546e-05  
  1.2000e-02    1.262e-10    1.099e-08    1.376e-07    1.561e-05  
  1.3000e-02    1.375e-10    1.116e-08    1.536e-07    1.579e-05  
  1.4000e-02    1.490e-10    1.134e-08    1.698e-07    1.600e-05  
  1.5000e-02    1.608e-10    1.155e-08    1.863e-07    1.622e-05  
  1.6000e-02    1.728e-10    1.177e-08    2.030e-07    1.647e-05  
  1.7000e-02    1.851e-10    1.200e-08    2.201e-07    1.675e-05  
  1.8000e-02    1.976e-10    1.226e-08    2.374e-07    1.705e-05  
  1.9000e-02    2.104e-10    1.253e-08    2.552e-07    1.737e-05  
  2.0000e-02    2.236e-10    1.282e-08    2.733e-07    1.772e-05  
  2.1000e-02    2.370e-10    1.313e-08    2.917e-07    1.809e-05  
  2.2000e-02    2.508e-10    1.346e-08    3.107e-07    1.850e-05  
  2.3000e-02    2.650e-10    1.381e-08    3.301e-07    1.892e-05  
  2.4000e-02    2.796e-10    1.418e-08    3.499e-07    1.938e-05  
  2.5000e-02    2.946e-10    1.458e-08    3.703e-07    1.987e-05  
  2.6000e-02    3.100e-10    1.499e-08    3.912e-07    2.038e-05  
  2.7000e-02    3.259e-10    1.542e-08    4.127e-07    2.092e-05  
  2.8000e-02    3.423e-10    1.588e-08    4.348e-07    2.150e-05  
  2.9000e-02    3.591e-10    1.636e-08    4.576e-07    2.210e-05  
  3.0000e-02    3.765e-10    1.687e-08    4.810e-07    2.274e-05  
  3.1000e-02    3.945e-10    1.740e-08    5.051e-07    2.341e-05  
  3.2000e-02    4.130e-10    1.795e-08    5.299e-07    2.411e-05  
  3.3000e-02    4.322e-10    1.853e-08    5.556e-07    2.485e-05  
  3.4000e-02    4.519e-10    1.914e-08    5.820e-07    2.563e-05  
  3.5000e-02    4.724e-10    1.978e-08    6.093e-07    2.644e-05  
  3.6000e-02    4.935e-10    2.045e-08    6.375e-07    2.729e-05  
  3.7000e-02    5.154e-10    2.114e-08    6.666e-07    2.818e-05  
  3.8000e-02    5.380e-10    2.187e-08    6.966e-07    2.911e-05  
  3.9000e-02    5.615e-10    2.263e-08    7.277e-07    3.008e-05  
  4.0000e-02    5.857e-10    2.343e-08    7.599e-07    3.110e-05  
  4.1000e-02    6.108e-10    2.425e-08    7.932e-07    3.216e-05  
  4.2000e-02    6.368e-10    2.512e-08    8.276e-07    3.327e-05  
  4.3000e-02    6.638e-10    2.602e-08    8.632e-07    3.443e-05  
  4.4000e-02    6.917e-10    2.695e-08    9.001e-07    3.563e-05  
  4.5000e-02    7.207e-10    2.793e-08    9.383e-07    3.689e-05  
  4.6000e-02    7.507e-10    2.895e-08    9.779e-07    3.821e-05  
  4.7000e-02    7.818e-10    3.001e-08    1.019e-06    3.957e-05  
  4.8000e-02    8.141e-10    3.112e-08    1.061e-06    4.100e-05  
  4.9000e-02    8.476e-10    3.227e-08    1.105e-06    4.249e-05  
  5.0000e-02    8.823e-10    3.347e-08    1.151e-06    4.404e-05  
  5.1000e-02    9.183e-10    3.472e-08    1.198e-06    4.565e-05  
  5.2000e-02    9.556e-10    3.601e-08    1.247e-06    4.733e-05  
  5.3000e-02    9.944e-10    3.737e-08    1.298e-06    4.908e-05  
  5.4000e-02    1.035e-09    3.877e-08    1.351e-06    5.090e-05  
  5.5000e-02    1.076e-09    4.023e-08    1.406e-06    5.279e-05  
  5.6000e-02    1.120e-09    4.176e-08    1.463e-06    5.477e-05  
  5.7000e-02    1.165e-09    4.334e-08    1.522e-06    5.682e-05  
  5.8000e-02    1.211e-09    4.498e-08    1.583e-06    5.896e-05  
  5.9000e-02    1.260e-09    4.670e-08    1.646e-06    6.118e-05  
  6.0000e-02    1.310e-09    4.848e-08    1.712e-06    6.350e-05  
  6.1000e-02    1.362e-09    5.033e-08    1.781e-06    6.590e-05  
  6.2000e-02    1.417e-09    5.225e-08    1.852e-06    6.841e-05  
  6.3000e-02    1.473e-09    5.426e-08    1.925e-06    7.101e-05  
  6.4000e-02    1.532e-09    5.634e-08    2.002e-06    7.372e-05  
  6.5000e-02    1.592e-09    5.850e-08    2.081e-06    7.654e-05  
  6.6000e-02    1.655e-09    6.075e-08    2.164e-06    7.947e-05  
  6.7000e-02    1.721e-09    6.309e-08    2.250e-06    8.252e-05  
  6.8000e-02    1.789e-09    6.552e-08    2.339e-06    8.568e-05  
  6.9000e-02    1.860e-09    6.805e-08    2.431e-06    8.897e-05  
  7.0000e-02    1.933e-09    7.068e-08    2.527e-06    9.240e-05  
  7.1000e-02    2.009e-09    7.341e-08    2.627e-06    9.595e-05  
  7.2000e-02    2.089e-09    7.624e-08    2.730e-06    9.964e-05  
  7.3000e-02    2.171e-09    7.919e-08    2.838e-06    1.035e-04  
  7.4000e-02    2.256e-09    8.226e-08    2.949e-06    1.075e-04  
  7.5000e-02    2.345e-09    8.544e-08    3.065e-06    1.116e-04  
  7.6000e-02    2.437e-09    8.875e-08    3.185e-06    1.159e-04  
  7.7000e-02    2.533e-09    9.219e-08    3.310e-06    1.204e-04  
  7.8000e-02    2.632e-09    9.577e-08    3.440e-06    1.250e-04  
  7.9000e-02    2.736e-09    9.948e-08    3.575e-06    1.298e-04  
  8.0000e-02    2.843e-09    1.033e-07    3.715e-06    1.348e-04  
  8.1000e-02    2.955e-09    1.074e-07    3.860e-06    1.400e-04  
  8.2000e-02    3.070e-09    1.115e-07    4.011e-06    1.453e-04  
  8.3000e-02    3.191e-09    1.159e-07    4.168e-06    1.509e-04  
  8.4000e-02    3.316e-09    1.204e-07    4.331e-06    1.567e-04  
  8.5000e-02    3.446e-09    1.250e-07    4.500e-06    1.627e-04  
  8.6000e-02    3.581e-09    1.299e-07    4.675e-06    1.689e-04  
  8.7000e-02    3.721e-09    1.349e-07    4.857e-06    1.754e-04  
  8.8000e-02    3.866e-09    1.402e-07    5.046e-06    1.821e-04  
  8.9000e-02    4.018e-09    1.456e-07    5.243e-06    1.891e-04  
  9.0000e-02    4.175e-09    1.513e-07    5.446e-06    1.963e-04  
  9.1000e-02    4.338e-09    1.572e-07    5.658e-06    2.038e-04  
  9.2000e-02    4.508e-09    1.633e-07    5.877e-06    2.115e-04  
  9.3000e-02    4.684e-09    1.696e-07    6.105e-06    2.196e-04  
  9.4000e-02    4.867e-09    1.762e-07    6.342e-06    2.280e-04  
  9.5000e-02    5.057e-09    1.830e-07    6.588e-06    2.366e-04  
  9.6000e-02    5.255e-09    1.901e-07    6.843e-06    2.456e-04  
  9.7000e-02    5.460e-09    1.975e-07    7.107e-06    2.549e-04  
  9.8000e-02    5.673e-09    2.052e-07    7.382e-06    2.646e-04  
  9.9000e-02    5.894e-09    2.132e-07    7.667e-06    2.746e-04  
    0.10000     6.124e-09    2.214e-07    7.963e-06    2.850e-04  
y
x

        volt    param      
                    gx4    
   -0.10000    -9.313e-06  
 -9.9000e-02   -1.188e-03  
 -9.8000e-02   -3.244e-02  
 -9.7000e-02     -0.8619   
 -9.6000e-02   -6.141e+03  
 -9.5000e-02    1.866e+04  
 -9.4000e-02   -1.890e+04  
 -9.3000e-02    6.382e+03  
 -9.2000e-02   -1.157e-02  
 -9.1000e-02   -1.116e-02  
 -9.0000e-02   -1.077e-02  
 -8.9000e-02   -1.039e-02  
 -8.8000e-02   -1.002e-02  
 -8.7000e-02   -9.663e-03  
 -8.6000e-02   -9.319e-03  
 -8.5000e-02   -8.986e-03  
 -8.4000e-02   -8.665e-03  
 -8.3000e-02   -8.354e-03  
 -8.2000e-02   -8.055e-03  
 -8.1000e-02   -7.766e-03  
 -8.0000e-02   -7.486e-03  
 -7.9000e-02   -7.217e-03  
 -7.8000e-02   -6.957e-03  
 -7.7000e-02   -6.706e-03  
 -7.6000e-02   -6.464e-03  
 -7.5000e-02   -6.230e-03  
 -7.4000e-02   -6.005e-03  
 -7.3000e-02   -5.787e-03  
 -7.2000e-02   -5.578e-03  
 -7.1000e-02   -5.375e-03  
 -7.0000e-02   -5.180e-03  
 -6.9000e-02   -4.991e-03  
 -6.8000e-02   -4.808e-03  
 -6.7000e-02   -4.632e-03  
 -6.6000e-02   -4.462e-03  
 -6.5000e-02   -4.298e-03  
 -6.4000e-02   -4.139e-03  
 -6.3000e-02   -3.985e-03  
 -6.2000e-02   -3.837e-03  
 -6.1000e-02   -3.693e-03  
 -6.0000e-02   -3.555e-03  
 -5.9000e-02   -3.421e-03  
 -5.8000e-02   -3.292e-03  
 -5.7000e-02   -3.167e-03  
 -5.6000e-02   -3.046e-03  
 -5.5000e-02   -2.930e-03  
 -5.4000e-02   -2.818e-03  
 -5.3000e-02   -2.710e-03  
 -5.2000e-02   -2.605e-03  
 -5.1000e-02   -2.505e-03  
 -5.0000e-02   -2.408e-03  
 -4.9000e-02   -2.314e-03  
 -4.8000e-02   -2.224e-03  
 -4.7000e-02   -2.137e-03  
 -4.6000e-02   -2.054e-03  
 -4.5000e-02   -1.973e-03  
 -4.4000e-02   -1.896e-03  
 -4.3000e-02   -1.821e-03  
 -4.2000e-02   -1.749e-03  
 -4.1000e-02   -1.680e-03  
 -4.0000e-02   -1.613e-03  
 -3.9000e-02   -1.548e-03  
 -3.8000e-02   -1.486e-03  
 -3.7000e-02   -1.426e-03  
 -3.6000e-02   -1.368e-03  
 -3.5000e-02   -1.313e-03  
 -3.4000e-02   -1.259e-03  
 -3.3000e-02   -1.207e-03  
 -3.2000e-02   -1.157e-03  
 -3.1000e-02   -1.109e-03  
 -3.0000e-02   -1.062e-03  
 -2.9000e-02   -1.017e-03  
 -2.8000e-02   -9.732e-04  
 -2.7000e-02   -9.309e-04  
 -2.6000e-02   -8.901e-04  
 -2.5000e-02   -8.505e-04  
 -2.4000e-02   -8.121e-04  
 -2.3000e-02   -7.750e-04  
 -2.2000e-02   -7.389e-04  
 -2.1000e-02   -7.040e-04  
 -2.0000e-02   -6.700e-04  
 -1.9000e-02   -6.370e-04  
 -1.8000e-02   -6.049e-04  
 -1.7000e-02   -5.737e-04  
 -1.6000e-02   -5.432e-04  
 -1.5000e-02   -5.136e-04  
 -1.4000e-02   -4.846e-04  
 -1.3000e-02   -4.564e-04  
 -1.2000e-02   -4.287e-04  
 -1.1000e-02   -4.017e-04  
 -1.0000e-02   -3.753e-04  
 -9.0000e-03   -3.493e-04  
 -8.0000e-03   -3.239e-04  
 -7.0000e-03   -2.989e-04  
 -6.0000e-03   -2.743e-04  
 -5.0000e-03   -2.501e-04  
 -4.0000e-03   -2.262e-04  
 -3.0000e-03   -2.027e-04  
 -2.0000e-03   -1.795e-04  
 -1.0000e-03   -1.565e-04  
    0.         -1.337e-04  
  1.0000e-03   -1.111e-04  
  2.0000e-03   -8.871e-05  
  3.0000e-03   -6.642e-05  
  4.0000e-03   -4.422e-05  
  5.0000e-03   -2.210e-05  
  6.0000e-03    5.315e-14  
  7.0000e-03    2.210e-05  
  8.0000e-03    4.422e-05  
  9.0000e-03    6.642e-05  
  1.0000e-02    8.871e-05  
  1.1000e-02    1.111e-04  
  1.2000e-02    1.337e-04  
  1.3000e-02    1.565e-04  
  1.4000e-02    1.795e-04  
  1.5000e-02    2.027e-04  
  1.6000e-02    2.262e-04  
  1.7000e-02    2.501e-04  
  1.8000e-02    2.743e-04  
  1.9000e-02    2.989e-04  
  2.0000e-02    3.239e-04  
  2.1000e-02    3.493e-04  
  2.2000e-02    3.753e-04  
  2.3000e-02    4.017e-04  
  2.4000e-02    4.287e-04  
  2.5000e-02    4.564e-04  
  2.6000e-02    4.846e-04  
  2.7000e-02    5.136e-04  
  2.8000e-02    5.432e-04  
  2.9000e-02    5.737e-04  
  3.0000e-02    6.049e-04  
  3.1000e-02    6.370e-04  
  3.2000e-02    6.700e-04  
  3.3000e-02    7.040e-04  
  3.4000e-02    7.389e-04  
  3.5000e-02    7.750e-04  
  3.6000e-02    8.121e-04  
  3.7000e-02    8.505e-04  
  3.8000e-02    8.901e-04  
  3.9000e-02    9.309e-04  
  4.0000e-02    9.732e-04  
  4.1000e-02    1.017e-03  
  4.2000e-02    1.062e-03  
  4.3000e-02    1.109e-03  
  4.4000e-02    1.157e-03  
  4.5000e-02    1.207e-03  
  4.6000e-02    1.259e-03  
  4.7000e-02    1.313e-03  
  4.8000e-02    1.368e-03  
  4.9000e-02    1.426e-03  
  5.0000e-02    1.486e-03  
  5.1000e-02    1.548e-03  
  5.2000e-02    1.613e-03  
  5.3000e-02    1.680e-03  
  5.4000e-02    1.749e-03  
  5.5000e-02    1.821e-03  
  5.6000e-02    1.896e-03  
  5.7000e-02    1.973e-03  
  5.8000e-02    2.054e-03  
  5.9000e-02    2.137e-03  
  6.0000e-02    2.224e-03  
  6.1000e-02    2.314e-03  
  6.2000e-02    2.408e-03  
  6.3000e-02    2.505e-03  
  6.4000e-02    2.605e-03  
  6.5000e-02    2.710e-03  
  6.6000e-02    2.818e-03  
  6.7000e-02    2.930e-03  
  6.8000e-02    3.046e-03  
  6.9000e-02    3.167e-03  
  7.0000e-02    3.292e-03  
  7.1000e-02    3.421e-03  
  7.2000e-02    3.555e-03  
  7.3000e-02    3.693e-03  
  7.4000e-02    3.837e-03  
  7.5000e-02    3.985e-03  
  7.6000e-02    4.139e-03  
  7.7000e-02    4.298e-03  
  7.8000e-02    4.462e-03  
  7.9000e-02    4.632e-03  
  8.0000e-02    4.808e-03  
  8.1000e-02    4.991e-03  
  8.2000e-02    5.180e-03  
  8.3000e-02    5.375e-03  
  8.4000e-02    5.578e-03  
  8.5000e-02    5.787e-03  
  8.6000e-02    6.005e-03  
  8.7000e-02    6.230e-03  
  8.8000e-02    6.464e-03  
  8.9000e-02    6.706e-03  
  9.0000e-02    6.957e-03  
  9.1000e-02    7.217e-03  
  9.2000e-02    7.486e-03  
  9.3000e-02    7.766e-03  
  9.4000e-02    8.055e-03  
  9.5000e-02    8.354e-03  
  9.6000e-02    8.665e-03  
  9.7000e-02    8.986e-03  
  9.8000e-02    9.319e-03  
  9.9000e-02    9.663e-03  
    0.10000     1.002e-02  
y
-----------------------------------------------
 ******  
 *sample netlist for bsim6.0

  ******  dc transfer curves tnom=  25.000 temp=  25.000 *****

   *** source        0:vgate =    0.4000        ***

x

        volt    param        param        param        param      
                    ids          gx           gx2          gx3    
   -0.10000    -1.134e-06   -6.124e-08   -2.214e-06   -7.963e-05  
 -9.9000e-02   -1.107e-06   -1.140e-03   -2.827e-04   -1.018e-02  
 -9.8000e-02   -1.080e-06    2.746e-05     -1.1404      -0.2805   
 -9.7000e-02   -1.053e-06    2.697e-05      1.1679    -1.140e+03  
 -9.6000e-02   -1.027e-06    2.648e-05   -4.892e-04    2.308e+03  
 -9.5000e-02   -1.002e-06    2.600e-05   -4.849e-04   -1.168e+03  
 -9.4000e-02   -9.768e-07    2.553e-05   -4.805e-04    4.326e-03  
 -9.3000e-02   -9.523e-07    2.505e-05   -4.761e-04    4.371e-03  
 -9.2000e-02   -9.281e-07    2.459e-05   -4.717e-04    4.416e-03  
 -9.1000e-02   -9.045e-07    2.412e-05   -4.672e-04    4.461e-03  
 -9.0000e-02   -8.813e-07    2.367e-05   -4.626e-04    4.506e-03  
 -8.9000e-02   -8.585e-07    2.321e-05   -4.580e-04    4.550e-03  
 -8.8000e-02   -8.362e-07    2.276e-05   -4.534e-04    4.594e-03  
 -8.7000e-02   -8.143e-07    2.232e-05   -4.487e-04    4.638e-03  
 -8.6000e-02   -7.928e-07    2.188e-05   -4.440e-04    4.681e-03  
 -8.5000e-02   -7.718e-07    2.145e-05   -4.392e-04    4.724e-03  
 -8.4000e-02   -7.512e-07    2.102e-05   -4.344e-04    4.766e-03  
 -8.3000e-02   -7.311e-07    2.059e-05   -4.296e-04    4.807e-03  
 -8.2000e-02   -7.113e-07    2.017e-05   -4.247e-04    4.848e-03  
 -8.1000e-02   -6.919e-07    1.976e-05   -4.197e-04    4.888e-03  
 -8.0000e-02   -6.730e-07    1.935e-05   -4.148e-04    4.927e-03  
 -7.9000e-02   -6.545e-07    1.894e-05   -4.098e-04    4.965e-03  
 -7.8000e-02   -6.363e-07    1.854e-05   -4.047e-04    5.002e-03  
 -7.7000e-02   -6.186e-07    1.815e-05   -3.997e-04    5.038e-03  
 -7.6000e-02   -6.012e-07    1.776e-05   -3.946e-04    5.073e-03  
 -7.5000e-02   -5.842e-07    1.738e-05   -3.894e-04    5.107e-03  
 -7.4000e-02   -5.676e-07    1.700e-05   -3.842e-04    5.140e-03  
 -7.3000e-02   -5.513e-07    1.662e-05   -3.790e-04    5.171e-03  
 -7.2000e-02   -5.354e-07    1.625e-05   -3.738e-04    5.201e-03  
 -7.1000e-02   -5.199e-07    1.589e-05   -3.686e-04    5.230e-03  
 -7.0000e-02   -5.047e-07    1.553e-05   -3.633e-04    5.257e-03  
 -6.9000e-02   -4.899e-07    1.518e-05   -3.580e-04    5.283e-03  
 -6.8000e-02   -4.754e-07    1.483e-05   -3.526e-04    5.308e-03  
 -6.7000e-02   -4.612e-07    1.449e-05   -3.473e-04    5.331e-03  
 -6.6000e-02   -4.474e-07    1.416e-05   -3.419e-04    5.352e-03  
 -6.5000e-02   -4.339e-07    1.382e-05   -3.365e-04    5.372e-03  
 -6.4000e-02   -4.207e-07    1.350e-05   -3.311e-04    5.391e-03  
 -6.3000e-02   -4.078e-07    1.318e-05   -3.257e-04    5.408e-03  
 -6.2000e-02   -3.953e-07    1.286e-05   -3.202e-04    5.423e-03  
 -6.1000e-02   -3.830e-07    1.255e-05   -3.148e-04    5.437e-03  
 -6.0000e-02   -3.711e-07    1.225e-05   -3.093e-04    5.449e-03  
 -5.9000e-02   -3.594e-07    1.195e-05   -3.039e-04    5.460e-03  
 -5.8000e-02   -3.481e-07    1.166e-05   -2.984e-04    5.469e-03  
 -5.7000e-02   -3.370e-07    1.137e-05   -2.929e-04    5.476e-03  
 -5.6000e-02   -3.262e-07    1.109e-05   -2.874e-04    5.482e-03  
 -5.5000e-02   -3.156e-07    1.081e-05   -2.819e-04    5.487e-03  
 -5.4000e-02   -3.053e-07    1.054e-05   -2.764e-04    5.489e-03  
 -5.3000e-02   -2.953e-07    1.028e-05   -2.710e-04    5.490e-03  
 -5.2000e-02   -2.856e-07    1.002e-05   -2.655e-04    5.490e-03  
 -5.1000e-02   -2.760e-07    9.762e-06   -2.600e-04    5.487e-03  
 -5.0000e-02   -2.668e-07    9.513e-06   -2.545e-04    5.483e-03  
 -4.9000e-02   -2.577e-07    9.270e-06   -2.490e-04    5.478e-03  
 -4.8000e-02   -2.489e-07    9.031e-06   -2.436e-04    5.470e-03  
 -4.7000e-02   -2.404e-07    8.799e-06   -2.381e-04    5.461e-03  
 -4.6000e-02   -2.320e-07    8.572e-06   -2.327e-04    5.450e-03  
 -4.5000e-02   -2.239e-07    8.350e-06   -2.273e-04    5.438e-03  
 -4.4000e-02   -2.160e-07    8.133e-06   -2.219e-04    5.424e-03  
 -4.3000e-02   -2.083e-07    7.922e-06   -2.165e-04    5.408e-03  
 -4.2000e-02   -2.007e-07    7.716e-06   -2.111e-04    5.391e-03  
 -4.1000e-02   -1.934e-07    7.516e-06   -2.057e-04    5.372e-03  
 -4.0000e-02   -1.863e-07    7.321e-06   -2.004e-04    5.352e-03  
 -3.9000e-02   -1.793e-07    7.131e-06   -1.951e-04    5.330e-03  
 -3.8000e-02   -1.726e-07    6.946e-06   -1.898e-04    5.306e-03  
 -3.7000e-02   -1.660e-07    6.767e-06   -1.846e-04    5.281e-03  
 -3.6000e-02   -1.596e-07    6.593e-06   -1.793e-04    5.255e-03  
 -3.5000e-02   -1.533e-07    6.424e-06   -1.741e-04    5.228e-03  
 -3.4000e-02   -1.472e-07    6.260e-06   -1.690e-04    5.199e-03  
 -3.3000e-02   -1.412e-07    6.101e-06   -1.638e-04    5.169e-03  
 -3.2000e-02   -1.354e-07    5.948e-06   -1.587e-04    5.138e-03  
 -3.1000e-02   -1.298e-07    5.799e-06   -1.537e-04    5.106e-03  
 -3.0000e-02   -1.243e-07    5.656e-06   -1.486e-04    5.073e-03  
 -2.9000e-02   -1.189e-07    5.517e-06   -1.436e-04    5.039e-03  
 -2.8000e-02   -1.136e-07    5.383e-06   -1.386e-04    5.005e-03  
 -2.7000e-02   -1.085e-07    5.254e-06   -1.337e-04    4.970e-03  
 -2.6000e-02   -1.035e-07    5.130e-06   -1.288e-04    4.935e-03  
 -2.5000e-02   -9.860e-08    5.011e-06   -1.239e-04    4.899e-03  
 -2.4000e-02   -9.381e-08    4.897e-06   -1.191e-04    4.863e-03  
 -2.3000e-02   -8.913e-08    4.787e-06   -1.143e-04    4.826e-03  
 -2.2000e-02   -8.455e-08    4.683e-06   -1.096e-04    4.790e-03  
 -2.1000e-02   -8.006e-08    4.582e-06   -1.049e-04    4.754e-03  
 -2.0000e-02   -7.566e-08    4.487e-06   -1.002e-04    4.718e-03  
 -1.9000e-02   -7.135e-08    4.396e-06   -9.553e-05    4.682e-03  
 -1.8000e-02   -6.713e-08    4.310e-06   -9.092e-05    4.647e-03  
 -1.7000e-02   -6.298e-08    4.228e-06   -8.634e-05    4.612e-03  
 -1.6000e-02   -5.890e-08    4.151e-06   -8.179e-05    4.578e-03  
 -1.5000e-02   -5.489e-08    4.078e-06   -7.728e-05    4.545e-03  
 -1.4000e-02   -5.094e-08    4.009e-06   -7.280e-05    4.512e-03  
 -1.3000e-02   -4.706e-08    3.945e-06   -6.835e-05    4.481e-03  
 -1.2000e-02   -4.323e-08    3.886e-06   -6.393e-05    4.451e-03  
 -1.1000e-02   -3.945e-08    3.831e-06   -5.954e-05    4.422e-03  
 -1.0000e-02   -3.571e-08    3.780e-06   -5.517e-05    4.394e-03  
 -9.0000e-03   -3.202e-08    3.733e-06   -5.082e-05    4.368e-03  
 -8.0000e-03   -2.837e-08    3.691e-06   -4.650e-05    4.343e-03  
 -7.0000e-03   -2.475e-08    3.653e-06   -4.221e-05    4.320e-03  
 -6.0000e-03   -2.116e-08    3.620e-06   -3.793e-05    4.298e-03  
 -5.0000e-03   -1.759e-08    3.590e-06   -3.367e-05    4.278e-03  
 -4.0000e-03   -1.405e-08    3.565e-06   -2.942e-05    4.260e-03  
 -3.0000e-03   -1.052e-08    3.544e-06   -2.519e-05    4.244e-03  
 -2.0000e-03   -7.008e-09    3.527e-06   -2.098e-05    4.230e-03  
 -1.0000e-03   -3.502e-09    3.515e-06   -1.677e-05    4.218e-03  
    0.            0.         3.506e-06   -1.257e-05    4.208e-03  
  1.0000e-03    3.502e-09    3.502e-06   -8.376e-06    4.199e-03  
  2.0000e-03    7.008e-09    3.502e-06   -4.187e-06    4.193e-03  
  3.0000e-03    1.052e-08    3.506e-06    1.694e-18    4.189e-03  
  4.0000e-03    1.405e-08    3.515e-06    4.187e-06    4.187e-03  
  5.0000e-03    1.759e-08    3.527e-06    8.376e-06    4.187e-03  
  6.0000e-03    2.116e-08    3.544e-06    1.257e-05    4.189e-03  
  7.0000e-03    2.475e-08    3.565e-06    1.677e-05    4.193e-03  
  8.0000e-03    2.837e-08    3.590e-06    2.098e-05    4.199e-03  
  9.0000e-03    3.202e-08    3.620e-06    2.519e-05    4.208e-03  
  1.0000e-02    3.571e-08    3.653e-06    2.942e-05    4.218e-03  
  1.1000e-02    3.945e-08    3.691e-06    3.367e-05    4.230e-03  
  1.2000e-02    4.323e-08    3.733e-06    3.793e-05    4.244e-03  
  1.3000e-02    4.706e-08    3.780e-06    4.221e-05    4.260e-03  
  1.4000e-02    5.094e-08    3.831e-06    4.650e-05    4.278e-03  
  1.5000e-02    5.489e-08    3.886e-06    5.082e-05    4.298e-03  
  1.6000e-02    5.890e-08    3.945e-06    5.517e-05    4.320e-03  
  1.7000e-02    6.298e-08    4.009e-06    5.954e-05    4.343e-03  
  1.8000e-02    6.713e-08    4.078e-06    6.393e-05    4.368e-03  
  1.9000e-02    7.135e-08    4.151e-06    6.835e-05    4.394e-03  
  2.0000e-02    7.566e-08    4.228e-06    7.280e-05    4.422e-03  
  2.1000e-02    8.006e-08    4.310e-06    7.728e-05    4.451e-03  
  2.2000e-02    8.455e-08    4.396e-06    8.179e-05    4.481e-03  
  2.3000e-02    8.913e-08    4.487e-06    8.634e-05    4.512e-03  
  2.4000e-02    9.381e-08    4.582e-06    9.092e-05    4.545e-03  
  2.5000e-02    9.860e-08    4.683e-06    9.553e-05    4.578e-03  
  2.6000e-02    1.035e-07    4.787e-06    1.002e-04    4.612e-03  
  2.7000e-02    1.085e-07    4.897e-06    1.049e-04    4.647e-03  
  2.8000e-02    1.136e-07    5.011e-06    1.096e-04    4.682e-03  
  2.9000e-02    1.189e-07    5.130e-06    1.143e-04    4.718e-03  
  3.0000e-02    1.243e-07    5.254e-06    1.191e-04    4.754e-03  
  3.1000e-02    1.298e-07    5.383e-06    1.239e-04    4.790e-03  
  3.2000e-02    1.354e-07    5.517e-06    1.288e-04    4.826e-03  
  3.3000e-02    1.412e-07    5.656e-06    1.337e-04    4.863e-03  
  3.4000e-02    1.472e-07    5.799e-06    1.386e-04    4.899e-03  
  3.5000e-02    1.533e-07    5.948e-06    1.436e-04    4.935e-03  
  3.6000e-02    1.596e-07    6.101e-06    1.486e-04    4.970e-03  
  3.7000e-02    1.660e-07    6.260e-06    1.537e-04    5.005e-03  
  3.8000e-02    1.726e-07    6.424e-06    1.587e-04    5.039e-03  
  3.9000e-02    1.793e-07    6.593e-06    1.638e-04    5.073e-03  
  4.0000e-02    1.863e-07    6.767e-06    1.690e-04    5.106e-03  
  4.1000e-02    1.934e-07    6.946e-06    1.741e-04    5.138e-03  
  4.2000e-02    2.007e-07    7.131e-06    1.793e-04    5.169e-03  
  4.3000e-02    2.083e-07    7.321e-06    1.846e-04    5.199e-03  
  4.4000e-02    2.160e-07    7.516e-06    1.898e-04    5.228e-03  
  4.5000e-02    2.239e-07    7.716e-06    1.951e-04    5.255e-03  
  4.6000e-02    2.320e-07    7.922e-06    2.004e-04    5.281e-03  
  4.7000e-02    2.404e-07    8.133e-06    2.057e-04    5.306e-03  
  4.8000e-02    2.489e-07    8.350e-06    2.111e-04    5.330e-03  
  4.9000e-02    2.577e-07    8.572e-06    2.165e-04    5.352e-03  
  5.0000e-02    2.668e-07    8.799e-06    2.219e-04    5.372e-03  
  5.1000e-02    2.760e-07    9.031e-06    2.273e-04    5.391e-03  
  5.2000e-02    2.856e-07    9.270e-06    2.327e-04    5.408e-03  
  5.3000e-02    2.953e-07    9.513e-06    2.381e-04    5.424e-03  
  5.4000e-02    3.053e-07    9.762e-06    2.436e-04    5.438e-03  
  5.5000e-02    3.156e-07    1.002e-05    2.490e-04    5.450e-03  
  5.6000e-02    3.262e-07    1.028e-05    2.545e-04    5.461e-03  
  5.7000e-02    3.370e-07    1.054e-05    2.600e-04    5.470e-03  
  5.8000e-02    3.481e-07    1.081e-05    2.655e-04    5.478e-03  
  5.9000e-02    3.594e-07    1.109e-05    2.710e-04    5.483e-03  
  6.0000e-02    3.711e-07    1.137e-05    2.764e-04    5.487e-03  
  6.1000e-02    3.830e-07    1.166e-05    2.819e-04    5.490e-03  
  6.2000e-02    3.953e-07    1.195e-05    2.874e-04    5.490e-03  
  6.3000e-02    4.078e-07    1.225e-05    2.929e-04    5.489e-03  
  6.4000e-02    4.207e-07    1.255e-05    2.984e-04    5.487e-03  
  6.5000e-02    4.339e-07    1.286e-05    3.039e-04    5.482e-03  
  6.6000e-02    4.474e-07    1.318e-05    3.093e-04    5.476e-03  
  6.7000e-02    4.612e-07    1.350e-05    3.148e-04    5.469e-03  
  6.8000e-02    4.754e-07    1.382e-05    3.202e-04    5.460e-03  
  6.9000e-02    4.899e-07    1.416e-05    3.257e-04    5.449e-03  
  7.0000e-02    5.047e-07    1.449e-05    3.311e-04    5.437e-03  
  7.1000e-02    5.199e-07    1.483e-05    3.365e-04    5.423e-03  
  7.2000e-02    5.354e-07    1.518e-05    3.419e-04    5.408e-03  
  7.3000e-02    5.513e-07    1.553e-05    3.473e-04    5.391e-03  
  7.4000e-02    5.676e-07    1.589e-05    3.526e-04    5.372e-03  
  7.5000e-02    5.842e-07    1.625e-05    3.580e-04    5.352e-03  
  7.6000e-02    6.012e-07    1.662e-05    3.633e-04    5.331e-03  
  7.7000e-02    6.186e-07    1.700e-05    3.686e-04    5.308e-03  
  7.8000e-02    6.363e-07    1.738e-05    3.738e-04    5.283e-03  
  7.9000e-02    6.545e-07    1.776e-05    3.790e-04    5.257e-03  
  8.0000e-02    6.730e-07    1.815e-05    3.842e-04    5.230e-03  
  8.1000e-02    6.919e-07    1.854e-05    3.894e-04    5.201e-03  
  8.2000e-02    7.113e-07    1.894e-05    3.946e-04    5.171e-03  
  8.3000e-02    7.311e-07    1.935e-05    3.997e-04    5.140e-03  
  8.4000e-02    7.512e-07    1.976e-05    4.047e-04    5.107e-03  
  8.5000e-02    7.718e-07    2.017e-05    4.098e-04    5.073e-03  
  8.6000e-02    7.928e-07    2.059e-05    4.148e-04    5.038e-03  
  8.7000e-02    8.143e-07    2.102e-05    4.197e-04    5.002e-03  
  8.8000e-02    8.362e-07    2.145e-05    4.247e-04    4.965e-03  
  8.9000e-02    8.585e-07    2.188e-05    4.296e-04    4.927e-03  
  9.0000e-02    8.813e-07    2.232e-05    4.344e-04    4.888e-03  
  9.1000e-02    9.045e-07    2.276e-05    4.392e-04    4.848e-03  
  9.2000e-02    9.281e-07    2.321e-05    4.440e-04    4.807e-03  
  9.3000e-02    9.523e-07    2.367e-05    4.487e-04    4.766e-03  
  9.4000e-02    9.768e-07    2.412e-05    4.534e-04    4.724e-03  
  9.5000e-02    1.002e-06    2.459e-05    4.580e-04    4.681e-03  
  9.6000e-02    1.027e-06    2.505e-05    4.626e-04    4.638e-03  
  9.7000e-02    1.053e-06    2.553e-05    4.672e-04    4.594e-03  
  9.8000e-02    1.080e-06    2.600e-05    4.717e-04    4.550e-03  
  9.9000e-02    1.107e-06    2.648e-05    4.761e-04    4.506e-03  
    0.10000     1.134e-06    2.697e-05    4.805e-04    4.461e-03  
y
x

        volt    param      
                    gx4    
   -0.10000    -2.850e-03  
 -9.9000e-02     -0.3646   
 -9.8000e-02    -10.0971   
 -9.7000e-02   -270.2752   
 -9.6000e-02   -1.139e+06  
 -9.5000e-02    3.448e+06  
 -9.4000e-02   -3.476e+06  
 -9.3000e-02    1.168e+06  
 -9.2000e-02    4.530e-02  
 -9.1000e-02    4.516e-02  
 -9.0000e-02    4.496e-02  
 -8.9000e-02    4.472e-02  
 -8.8000e-02    4.443e-02  
 -8.7000e-02    4.407e-02  
 -8.6000e-02    4.367e-02  
 -8.5000e-02    4.320e-02  
 -8.4000e-02    4.267e-02  
 -8.3000e-02    4.208e-02  
 -8.2000e-02    4.142e-02  
 -8.1000e-02    4.070e-02  
 -8.0000e-02    3.991e-02  
 -7.9000e-02    3.905e-02  
 -7.8000e-02    3.813e-02  
 -7.7000e-02    3.715e-02  
 -7.6000e-02    3.610e-02  
 -7.5000e-02    3.500e-02  
 -7.4000e-02    3.384e-02  
 -7.3000e-02    3.262e-02  
 -7.2000e-02    3.136e-02  
 -7.1000e-02    3.005e-02  
 -7.0000e-02    2.870e-02  
 -6.9000e-02    2.731e-02  
 -6.8000e-02    2.589e-02  
 -6.7000e-02    2.445e-02  
 -6.6000e-02    2.298e-02  
 -6.5000e-02    2.149e-02  
 -6.4000e-02    1.999e-02  
 -6.3000e-02    1.847e-02  
 -6.2000e-02    1.694e-02  
 -6.1000e-02    1.539e-02  
 -6.0000e-02    1.384e-02  
 -5.9000e-02    1.227e-02  
 -5.8000e-02    1.070e-02  
 -5.7000e-02    9.111e-03  
 -5.6000e-02    7.513e-03  
 -5.5000e-02    5.904e-03  
 -5.4000e-02    4.283e-03  
 -5.3000e-02    2.650e-03  
 -5.2000e-02    1.006e-03  
 -5.1000e-02   -6.488e-04  
 -5.0000e-02   -2.313e-03  
 -4.9000e-02   -3.986e-03  
 -4.8000e-02   -5.664e-03  
 -4.7000e-02   -7.346e-03  
 -4.6000e-02   -9.028e-03  
 -4.5000e-02   -1.071e-02  
 -4.4000e-02   -1.238e-02  
 -4.3000e-02   -1.404e-02  
 -4.2000e-02   -1.568e-02  
 -4.1000e-02   -1.730e-02  
 -4.0000e-02   -1.889e-02  
 -3.9000e-02   -2.045e-02  
 -3.8000e-02   -2.197e-02  
 -3.7000e-02   -2.344e-02  
 -3.6000e-02   -2.487e-02  
 -3.5000e-02   -2.623e-02  
 -3.4000e-02   -2.753e-02  
 -3.3000e-02   -2.877e-02  
 -3.2000e-02   -2.993e-02  
 -3.1000e-02   -3.100e-02  
 -3.0000e-02   -3.199e-02  
 -2.9000e-02   -3.289e-02  
 -2.8000e-02   -3.370e-02  
 -2.7000e-02   -3.440e-02  
 -2.6000e-02   -3.500e-02  
 -2.5000e-02   -3.550e-02  
 -2.4000e-02   -3.588e-02  
 -2.3000e-02   -3.615e-02  
 -2.2000e-02   -3.630e-02  
 -2.1000e-02   -3.633e-02  
 -2.0000e-02   -3.625e-02  
 -1.9000e-02   -3.605e-02  
 -1.8000e-02   -3.572e-02  
 -1.7000e-02   -3.528e-02  
 -1.6000e-02   -3.472e-02  
 -1.5000e-02   -3.405e-02  
 -1.4000e-02   -3.325e-02  
 -1.3000e-02   -3.235e-02  
 -1.2000e-02   -3.134e-02  
 -1.1000e-02   -3.022e-02  
 -1.0000e-02   -2.899e-02  
 -9.0000e-03   -2.767e-02  
 -8.0000e-03   -2.626e-02  
 -7.0000e-03   -2.476e-02  
 -6.0000e-03   -2.318e-02  
 -5.0000e-03   -2.152e-02  
 -4.0000e-03   -1.979e-02  
 -3.0000e-03   -1.799e-02  
 -2.0000e-03   -1.614e-02  
 -1.0000e-03   -1.424e-02  
    0.         -1.229e-02  
  1.0000e-03   -1.030e-02  
  2.0000e-03   -8.276e-03  
  3.0000e-03   -6.229e-03  
  4.0000e-03   -4.163e-03  
  5.0000e-03   -2.085e-03  
  6.0000e-03    9.055e-13  
  7.0000e-03    2.085e-03  
  8.0000e-03    4.163e-03  
  9.0000e-03    6.229e-03  
  1.0000e-02    8.276e-03  
  1.1000e-02    1.030e-02  
  1.2000e-02    1.229e-02  
  1.3000e-02    1.424e-02  
  1.4000e-02    1.614e-02  
  1.5000e-02    1.799e-02  
  1.6000e-02    1.979e-02  
  1.7000e-02    2.152e-02  
  1.8000e-02    2.318e-02  
  1.9000e-02    2.476e-02  
  2.0000e-02    2.626e-02  
  2.1000e-02    2.767e-02  
  2.2000e-02    2.899e-02  
  2.3000e-02    3.022e-02  
  2.4000e-02    3.134e-02  
  2.5000e-02    3.235e-02  
  2.6000e-02    3.325e-02  
  2.7000e-02    3.405e-02  
  2.8000e-02    3.472e-02  
  2.9000e-02    3.528e-02  
  3.0000e-02    3.572e-02  
  3.1000e-02    3.605e-02  
  3.2000e-02    3.625e-02  
  3.3000e-02    3.633e-02  
  3.4000e-02    3.630e-02  
  3.5000e-02    3.615e-02  
  3.6000e-02    3.588e-02  
  3.7000e-02    3.550e-02  
  3.8000e-02    3.500e-02  
  3.9000e-02    3.440e-02  
  4.0000e-02    3.370e-02  
  4.1000e-02    3.289e-02  
  4.2000e-02    3.199e-02  
  4.3000e-02    3.100e-02  
  4.4000e-02    2.993e-02  
  4.5000e-02    2.877e-02  
  4.6000e-02    2.753e-02  
  4.7000e-02    2.623e-02  
  4.8000e-02    2.487e-02  
  4.9000e-02    2.344e-02  
  5.0000e-02    2.197e-02  
  5.1000e-02    2.045e-02  
  5.2000e-02    1.889e-02  
  5.3000e-02    1.730e-02  
  5.4000e-02    1.568e-02  
  5.5000e-02    1.404e-02  
  5.6000e-02    1.238e-02  
  5.7000e-02    1.071e-02  
  5.8000e-02    9.028e-03  
  5.9000e-02    7.346e-03  
  6.0000e-02    5.664e-03  
  6.1000e-02    3.986e-03  
  6.2000e-02    2.313e-03  
  6.3000e-02    6.488e-04  
  6.4000e-02   -1.006e-03  
  6.5000e-02   -2.650e-03  
  6.6000e-02   -4.283e-03  
  6.7000e-02   -5.904e-03  
  6.8000e-02   -7.513e-03  
  6.9000e-02   -9.111e-03  
  7.0000e-02   -1.070e-02  
  7.1000e-02   -1.227e-02  
  7.2000e-02   -1.384e-02  
  7.3000e-02   -1.539e-02  
  7.4000e-02   -1.694e-02  
  7.5000e-02   -1.847e-02  
  7.6000e-02   -1.999e-02  
  7.7000e-02   -2.149e-02  
  7.8000e-02   -2.298e-02  
  7.9000e-02   -2.445e-02  
  8.0000e-02   -2.589e-02  
  8.1000e-02   -2.731e-02  
  8.2000e-02   -2.870e-02  
  8.3000e-02   -3.005e-02  
  8.4000e-02   -3.136e-02  
  8.5000e-02   -3.262e-02  
  8.6000e-02   -3.384e-02  
  8.7000e-02   -3.500e-02  
  8.8000e-02   -3.610e-02  
  8.9000e-02   -3.715e-02  
  9.0000e-02   -3.813e-02  
  9.1000e-02   -3.905e-02  
  9.2000e-02   -3.991e-02  
  9.3000e-02   -4.070e-02  
  9.4000e-02   -4.142e-02  
  9.5000e-02   -4.208e-02  
  9.6000e-02   -4.267e-02  
  9.7000e-02   -4.320e-02  
  9.8000e-02   -4.367e-02  
  9.9000e-02   -4.408e-02  
    0.10000    -4.443e-02  
y
-----------------------------------------------
 ******  
 *sample netlist for bsim6.0

  ******  dc transfer curves tnom=  25.000 temp=  25.000 *****

   *** source        0:vgate =    0.6000        ***

x

        volt    param        param        param        param      
                    ids          gx           gx2          gx3    
   -0.10000    -1.297e-05   -1.134e-05   -2.697e-04   -4.805e-03  
 -9.9000e-02   -1.283e-05   -1.411e-02   -3.831e-02     -0.7502   
 -9.8000e-02   -1.268e-05    1.449e-04    -14.0954     -38.0418   
 -9.7000e-02   -1.254e-05    1.444e-04     14.2516    -1.405e+04  
 -9.6000e-02   -1.240e-05    1.439e-04   -4.901e-04    2.834e+04  
 -9.5000e-02   -1.225e-05    1.434e-04   -4.833e-04   -1.425e+04  
 -9.4000e-02   -1.211e-05    1.429e-04   -4.765e-04    6.826e-03  
 -9.3000e-02   -1.197e-05    1.425e-04   -4.697e-04    6.800e-03  
 -9.2000e-02   -1.183e-05    1.420e-04   -4.630e-04    6.768e-03  
 -9.1000e-02   -1.169e-05    1.416e-04   -4.563e-04    6.731e-03  
 -9.0000e-02   -1.155e-05    1.411e-04   -4.496e-04    6.689e-03  
 -8.9000e-02   -1.140e-05    1.407e-04   -4.430e-04    6.643e-03  
 -8.8000e-02   -1.126e-05    1.403e-04   -4.365e-04    6.593e-03  
 -8.7000e-02   -1.113e-05    1.398e-04   -4.300e-04    6.540e-03  
 -8.6000e-02   -1.099e-05    1.394e-04   -4.236e-04    6.483e-03  
 -8.5000e-02   -1.085e-05    1.390e-04   -4.172e-04    6.422e-03  
 -8.4000e-02   -1.071e-05    1.386e-04   -4.109e-04    6.360e-03  
 -8.3000e-02   -1.057e-05    1.382e-04   -4.047e-04    6.295e-03  
 -8.2000e-02   -1.043e-05    1.378e-04   -3.985e-04    6.228e-03  
 -8.1000e-02   -1.030e-05    1.374e-04   -3.925e-04    6.159e-03  
 -8.0000e-02   -1.016e-05    1.370e-04   -3.864e-04    6.090e-03  
 -7.9000e-02   -1.002e-05    1.367e-04   -3.805e-04    6.019e-03  
 -7.8000e-02   -9.889e-06    1.363e-04   -3.746e-04    5.948e-03  
 -7.7000e-02   -9.753e-06    1.359e-04   -3.688e-04    5.877e-03  
 -7.6000e-02   -9.618e-06    1.356e-04   -3.631e-04    5.807e-03  
 -7.5000e-02   -9.483e-06    1.352e-04   -3.574e-04    5.736e-03  
 -7.4000e-02   -9.348e-06    1.349e-04   -3.518e-04    5.667e-03  
 -7.3000e-02   -9.214e-06    1.345e-04   -3.463e-04    5.599e-03  
 -7.2000e-02   -9.080e-06    1.342e-04   -3.408e-04    5.532e-03  
 -7.1000e-02   -8.947e-06    1.339e-04   -3.354e-04    5.466e-03  
 -7.0000e-02   -8.813e-06    1.336e-04   -3.301e-04    5.403e-03  
 -6.9000e-02   -8.681e-06    1.332e-04   -3.248e-04    5.341e-03  
 -6.8000e-02   -8.548e-06    1.329e-04   -3.196e-04    5.282e-03  
 -6.7000e-02   -8.416e-06    1.326e-04   -3.144e-04    5.224e-03  
 -6.6000e-02   -8.284e-06    1.323e-04   -3.093e-04    5.170e-03  
 -6.5000e-02   -8.152e-06    1.320e-04   -3.042e-04    5.117e-03  
 -6.4000e-02   -8.020e-06    1.317e-04   -2.992e-04    5.068e-03  
 -6.3000e-02   -7.889e-06    1.314e-04   -2.942e-04    5.021e-03  
 -6.2000e-02   -7.758e-06    1.311e-04   -2.893e-04    4.976e-03  
 -6.1000e-02   -7.628e-06    1.309e-04   -2.844e-04    4.935e-03  
 -6.0000e-02   -7.498e-06    1.306e-04   -2.795e-04    4.896e-03  
 -5.9000e-02   -7.368e-06    1.303e-04   -2.747e-04    4.859e-03  
 -5.8000e-02   -7.238e-06    1.300e-04   -2.699e-04    4.825e-03  
 -5.7000e-02   -7.108e-06    1.298e-04   -2.651e-04    4.794e-03  
 -5.6000e-02   -6.979e-06    1.295e-04   -2.604e-04    4.765e-03  
 -5.5000e-02   -6.850e-06    1.293e-04   -2.557e-04    4.739e-03  
 -5.4000e-02   -6.721e-06    1.290e-04   -2.510e-04    4.714e-03  
 -5.3000e-02   -6.593e-06    1.288e-04   -2.463e-04    4.692e-03  
 -5.2000e-02   -6.464e-06    1.286e-04   -2.417e-04    4.672e-03  
 -5.1000e-02   -6.336e-06    1.283e-04   -2.370e-04    4.654e-03  
 -5.0000e-02   -6.208e-06    1.281e-04   -2.324e-04    4.637e-03  
 -4.9000e-02   -6.081e-06    1.279e-04   -2.278e-04    4.622e-03  
 -4.8000e-02   -5.953e-06    1.277e-04   -2.232e-04    4.609e-03  
 -4.7000e-02   -5.826e-06    1.274e-04   -2.186e-04    4.597e-03  
 -4.6000e-02   -5.699e-06    1.272e-04   -2.140e-04    4.586e-03  
 -4.5000e-02   -5.572e-06    1.270e-04   -2.095e-04    4.576e-03  
 -4.4000e-02   -5.445e-06    1.268e-04   -2.049e-04    4.567e-03  
 -4.3000e-02   -5.319e-06    1.266e-04   -2.004e-04    4.559e-03  
 -4.2000e-02   -5.193e-06    1.264e-04   -1.958e-04    4.551e-03  
 -4.1000e-02   -5.067e-06    1.263e-04   -1.913e-04    4.544e-03  
 -4.0000e-02   -4.941e-06    1.261e-04   -1.867e-04    4.538e-03  
 -3.9000e-02   -4.815e-06    1.259e-04   -1.822e-04    4.531e-03  
 -3.8000e-02   -4.690e-06    1.257e-04   -1.777e-04    4.525e-03  
 -3.7000e-02   -4.564e-06    1.255e-04   -1.732e-04    4.519e-03  
 -3.6000e-02   -4.439e-06    1.254e-04   -1.687e-04    4.513e-03  
 -3.5000e-02   -4.314e-06    1.252e-04   -1.642e-04    4.507e-03  
 -3.4000e-02   -4.189e-06    1.251e-04   -1.597e-04    4.500e-03  
 -3.3000e-02   -4.064e-06    1.249e-04   -1.552e-04    4.494e-03  
 -3.2000e-02   -3.940e-06    1.248e-04   -1.507e-04    4.487e-03  
 -3.1000e-02   -3.815e-06    1.246e-04   -1.462e-04    4.479e-03  
 -3.0000e-02   -3.691e-06    1.245e-04   -1.418e-04    4.471e-03  
 -2.9000e-02   -3.566e-06    1.244e-04   -1.373e-04    4.463e-03  
 -2.8000e-02   -3.442e-06    1.242e-04   -1.329e-04    4.455e-03  
 -2.7000e-02   -3.318e-06    1.241e-04   -1.284e-04    4.446e-03  
 -2.6000e-02   -3.194e-06    1.240e-04   -1.240e-04    4.436e-03  
 -2.5000e-02   -3.071e-06    1.239e-04   -1.196e-04    4.426e-03  
 -2.4000e-02   -2.947e-06    1.238e-04   -1.152e-04    4.416e-03  
 -2.3000e-02   -2.823e-06    1.237e-04   -1.108e-04    4.406e-03  
 -2.2000e-02   -2.700e-06    1.236e-04   -1.064e-04    4.395e-03  
 -2.1000e-02   -2.577e-06    1.235e-04   -1.020e-04    4.384e-03  
 -2.0000e-02   -2.453e-06    1.234e-04   -9.769e-05    4.372e-03  
 -1.9000e-02   -2.330e-06    1.233e-04   -9.334e-05    4.361e-03  
 -1.8000e-02   -2.207e-06    1.232e-04   -8.900e-05    4.349e-03  
 -1.7000e-02   -2.084e-06    1.231e-04   -8.467e-05    4.338e-03  
 -1.6000e-02   -1.961e-06    1.230e-04   -8.036e-05    4.326e-03  
 -1.5000e-02   -1.838e-06    1.230e-04   -7.605e-05    4.315e-03  
 -1.4000e-02   -1.715e-06    1.229e-04   -7.176e-05    4.303e-03  
 -1.3000e-02   -1.593e-06    1.228e-04   -6.748e-05    4.292e-03  
 -1.2000e-02   -1.470e-06    1.228e-04   -6.321e-05    4.282e-03  
 -1.1000e-02   -1.347e-06    1.227e-04   -5.895e-05    4.271e-03  
 -1.0000e-02   -1.225e-06    1.227e-04   -5.470e-05    4.261e-03  
 -9.0000e-03   -1.102e-06    1.226e-04   -5.045e-05    4.252e-03  
 -8.0000e-03   -9.795e-07    1.226e-04   -4.622e-05    4.243e-03  
 -7.0000e-03   -8.570e-07    1.225e-04   -4.199e-05    4.235e-03  
 -6.0000e-03   -7.345e-07    1.225e-04   -3.777e-05    4.227e-03  
 -5.0000e-03   -6.120e-07    1.225e-04   -3.356e-05    4.220e-03  
 -4.0000e-03   -4.896e-07    1.225e-04   -2.935e-05    4.213e-03  
 -3.0000e-03   -3.672e-07    1.224e-04   -2.515e-05    4.208e-03  
 -2.0000e-03   -2.448e-07    1.224e-04   -2.095e-05    4.202e-03  
 -1.0000e-03   -1.224e-07    1.224e-04   -1.676e-05    4.198e-03  
    0.            0.         1.224e-04   -1.256e-05    4.194e-03  
  1.0000e-03    1.224e-07    1.224e-04   -8.375e-06    4.191e-03  
  2.0000e-03    2.448e-07    1.224e-04   -4.187e-06    4.189e-03  
  3.0000e-03    3.672e-07    1.224e-04   -1.084e-16    4.188e-03  
  4.0000e-03    4.896e-07    1.224e-04    4.187e-06    4.187e-03  
  5.0000e-03    6.120e-07    1.224e-04    8.375e-06    4.187e-03  
  6.0000e-03    7.345e-07    1.224e-04    1.256e-05    4.188e-03  
  7.0000e-03    8.570e-07    1.225e-04    1.676e-05    4.189e-03  
  8.0000e-03    9.795e-07    1.225e-04    2.095e-05    4.191e-03  
  9.0000e-03    1.102e-06    1.225e-04    2.515e-05    4.194e-03  
  1.0000e-02    1.225e-06    1.225e-04    2.935e-05    4.198e-03  
  1.1000e-02    1.347e-06    1.226e-04    3.356e-05    4.202e-03  
  1.2000e-02    1.470e-06    1.226e-04    3.777e-05    4.208e-03  
  1.3000e-02    1.593e-06    1.227e-04    4.199e-05    4.213e-03  
  1.4000e-02    1.715e-06    1.227e-04    4.622e-05    4.220e-03  
  1.5000e-02    1.838e-06    1.228e-04    5.045e-05    4.227e-03  
  1.6000e-02    1.961e-06    1.228e-04    5.470e-05    4.235e-03  
  1.7000e-02    2.084e-06    1.229e-04    5.895e-05    4.243e-03  
  1.8000e-02    2.207e-06    1.230e-04    6.321e-05    4.252e-03  
  1.9000e-02    2.330e-06    1.230e-04    6.748e-05    4.261e-03  
  2.0000e-02    2.453e-06    1.231e-04    7.176e-05    4.271e-03  
  2.1000e-02    2.577e-06    1.232e-04    7.605e-05    4.282e-03  
  2.2000e-02    2.700e-06    1.233e-04    8.036e-05    4.292e-03  
  2.3000e-02    2.823e-06    1.234e-04    8.467e-05    4.303e-03  
  2.4000e-02    2.947e-06    1.235e-04    8.900e-05    4.315e-03  
  2.5000e-02    3.071e-06    1.236e-04    9.334e-05    4.326e-03  
  2.6000e-02    3.194e-06    1.237e-04    9.769e-05    4.338e-03  
  2.7000e-02    3.318e-06    1.238e-04    1.020e-04    4.349e-03  
  2.8000e-02    3.442e-06    1.239e-04    1.064e-04    4.361e-03  
  2.9000e-02    3.566e-06    1.240e-04    1.108e-04    4.372e-03  
  3.0000e-02    3.691e-06    1.241e-04    1.152e-04    4.384e-03  
  3.1000e-02    3.815e-06    1.242e-04    1.196e-04    4.395e-03  
  3.2000e-02    3.940e-06    1.244e-04    1.240e-04    4.406e-03  
  3.3000e-02    4.064e-06    1.245e-04    1.284e-04    4.416e-03  
  3.4000e-02    4.189e-06    1.246e-04    1.329e-04    4.426e-03  
  3.5000e-02    4.314e-06    1.248e-04    1.373e-04    4.436e-03  
  3.6000e-02    4.439e-06    1.249e-04    1.418e-04    4.446e-03  
  3.7000e-02    4.564e-06    1.251e-04    1.462e-04    4.455e-03  
  3.8000e-02    4.690e-06    1.252e-04    1.507e-04    4.463e-03  
  3.9000e-02    4.815e-06    1.254e-04    1.552e-04    4.471e-03  
  4.0000e-02    4.941e-06    1.255e-04    1.597e-04    4.479e-03  
  4.1000e-02    5.067e-06    1.257e-04    1.642e-04    4.487e-03  
  4.2000e-02    5.193e-06    1.259e-04    1.687e-04    4.494e-03  
  4.3000e-02    5.319e-06    1.261e-04    1.732e-04    4.500e-03  
  4.4000e-02    5.445e-06    1.263e-04    1.777e-04    4.507e-03  
  4.5000e-02    5.572e-06    1.264e-04    1.822e-04    4.513e-03  
  4.6000e-02    5.699e-06    1.266e-04    1.867e-04    4.519e-03  
  4.7000e-02    5.826e-06    1.268e-04    1.913e-04    4.525e-03  
  4.8000e-02    5.953e-06    1.270e-04    1.958e-04    4.531e-03  
  4.9000e-02    6.081e-06    1.272e-04    2.004e-04    4.538e-03  
  5.0000e-02    6.208e-06    1.274e-04    2.049e-04    4.544e-03  
  5.1000e-02    6.336e-06    1.277e-04    2.095e-04    4.551e-03  
  5.2000e-02    6.464e-06    1.279e-04    2.140e-04    4.559e-03  
  5.3000e-02    6.593e-06    1.281e-04    2.186e-04    4.567e-03  
  5.4000e-02    6.721e-06    1.283e-04    2.232e-04    4.576e-03  
  5.5000e-02    6.850e-06    1.286e-04    2.278e-04    4.586e-03  
  5.6000e-02    6.979e-06    1.288e-04    2.324e-04    4.597e-03  
  5.7000e-02    7.108e-06    1.290e-04    2.370e-04    4.609e-03  
  5.8000e-02    7.238e-06    1.293e-04    2.417e-04    4.622e-03  
  5.9000e-02    7.368e-06    1.295e-04    2.463e-04    4.637e-03  
  6.0000e-02    7.498e-06    1.298e-04    2.510e-04    4.654e-03  
  6.1000e-02    7.628e-06    1.300e-04    2.557e-04    4.672e-03  
  6.2000e-02    7.758e-06    1.303e-04    2.604e-04    4.692e-03  
  6.3000e-02    7.889e-06    1.306e-04    2.651e-04    4.714e-03  
  6.4000e-02    8.020e-06    1.309e-04    2.699e-04    4.739e-03  
  6.5000e-02    8.152e-06    1.311e-04    2.747e-04    4.765e-03  
  6.6000e-02    8.284e-06    1.314e-04    2.795e-04    4.794e-03  
  6.7000e-02    8.416e-06    1.317e-04    2.844e-04    4.825e-03  
  6.8000e-02    8.548e-06    1.320e-04    2.893e-04    4.859e-03  
  6.9000e-02    8.681e-06    1.323e-04    2.942e-04    4.896e-03  
  7.0000e-02    8.813e-06    1.326e-04    2.992e-04    4.935e-03  
  7.1000e-02    8.947e-06    1.329e-04    3.042e-04    4.976e-03  
  7.2000e-02    9.080e-06    1.332e-04    3.093e-04    5.021e-03  
  7.3000e-02    9.214e-06    1.336e-04    3.144e-04    5.068e-03  
  7.4000e-02    9.348e-06    1.339e-04    3.196e-04    5.117e-03  
  7.5000e-02    9.483e-06    1.342e-04    3.248e-04    5.170e-03  
  7.6000e-02    9.618e-06    1.345e-04    3.301e-04    5.224e-03  
  7.7000e-02    9.753e-06    1.349e-04    3.354e-04    5.282e-03  
  7.8000e-02    9.889e-06    1.352e-04    3.408e-04    5.341e-03  
  7.9000e-02    1.002e-05    1.356e-04    3.463e-04    5.403e-03  
  8.0000e-02    1.016e-05    1.359e-04    3.518e-04    5.466e-03  
  8.1000e-02    1.030e-05    1.363e-04    3.574e-04    5.532e-03  
  8.2000e-02    1.043e-05    1.367e-04    3.631e-04    5.599e-03  
  8.3000e-02    1.057e-05    1.370e-04    3.688e-04    5.667e-03  
  8.4000e-02    1.071e-05    1.374e-04    3.746e-04    5.736e-03  
  8.5000e-02    1.085e-05    1.378e-04    3.805e-04    5.807e-03  
  8.6000e-02    1.099e-05    1.382e-04    3.864e-04    5.877e-03  
  8.7000e-02    1.113e-05    1.386e-04    3.925e-04    5.948e-03  
  8.8000e-02    1.126e-05    1.390e-04    3.985e-04    6.019e-03  
  8.9000e-02    1.140e-05    1.394e-04    4.047e-04    6.090e-03  
  9.0000e-02    1.155e-05    1.398e-04    4.109e-04    6.159e-03  
  9.1000e-02    1.169e-05    1.403e-04    4.172e-04    6.228e-03  
  9.2000e-02    1.183e-05    1.407e-04    4.236e-04    6.295e-03  
  9.3000e-02    1.197e-05    1.411e-04    4.300e-04    6.360e-03  
  9.4000e-02    1.211e-05    1.416e-04    4.365e-04    6.422e-03  
  9.5000e-02    1.225e-05    1.420e-04    4.430e-04    6.483e-03  
  9.6000e-02    1.240e-05    1.425e-04    4.496e-04    6.540e-03  
  9.7000e-02    1.254e-05    1.429e-04    4.563e-04    6.593e-03  
  9.8000e-02    1.268e-05    1.434e-04    4.630e-04    6.643e-03  
  9.9000e-02    1.283e-05    1.439e-04    4.697e-04    6.689e-03  
    0.10000     1.297e-05    1.444e-04    4.765e-04    6.731e-03  
y
x

        volt    param      
                    gx4    
   -0.10000    -4.461e-02  
 -9.9000e-02     -9.2666   
 -9.8000e-02   -745.4199   
 -9.7000e-02   -3.729e+04  
 -9.6000e-02   -1.401e+07  
 -9.5000e-02    4.240e+07  
 -9.4000e-02   -4.259e+07  
 -9.3000e-02    1.425e+07  
 -9.2000e-02   -2.686e-02  
 -9.1000e-02   -3.201e-02  
 -9.0000e-02   -3.693e-02  
 -8.9000e-02   -4.157e-02  
 -8.8000e-02   -4.592e-02  
 -8.7000e-02   -4.996e-02  
 -8.6000e-02   -5.367e-02  
 -8.5000e-02   -5.704e-02  
 -8.4000e-02   -6.005e-02  
 -8.3000e-02   -6.271e-02  
 -8.2000e-02   -6.499e-02  
 -8.1000e-02   -6.691e-02  
 -8.0000e-02   -6.845e-02  
 -7.9000e-02   -6.963e-02  
 -7.8000e-02   -7.044e-02  
 -7.7000e-02   -7.090e-02  
 -7.6000e-02   -7.101e-02  
 -7.5000e-02   -7.080e-02  
 -7.4000e-02   -7.027e-02  
 -7.3000e-02   -6.945e-02  
 -7.2000e-02   -6.834e-02  
 -7.1000e-02   -6.699e-02  
 -7.0000e-02   -6.539e-02  
 -6.9000e-02   -6.359e-02  
 -6.8000e-02   -6.160e-02  
 -6.7000e-02   -5.944e-02  
 -6.6000e-02   -5.714e-02  
 -6.5000e-02   -5.473e-02  
 -6.4000e-02   -5.222e-02  
 -6.3000e-02   -4.965e-02  
 -6.2000e-02   -4.702e-02  
 -6.1000e-02   -4.437e-02  
 -6.0000e-02   -4.171e-02  
 -5.9000e-02   -3.906e-02  
 -5.8000e-02   -3.644e-02  
 -5.7000e-02   -3.386e-02  
 -5.6000e-02   -3.135e-02  
 -5.5000e-02   -2.892e-02  
 -5.4000e-02   -2.657e-02  
 -5.3000e-02   -2.433e-02  
 -5.2000e-02   -2.219e-02  
 -5.1000e-02   -2.017e-02  
 -5.0000e-02   -1.828e-02  
 -4.9000e-02   -1.652e-02  
 -4.8000e-02   -1.490e-02  
 -4.7000e-02   -1.342e-02  
 -4.6000e-02   -1.208e-02  
 -4.5000e-02   -1.088e-02  
 -4.4000e-02   -9.825e-03  
 -4.3000e-02   -8.912e-03  
 -4.2000e-02   -8.136e-03  
 -4.1000e-02   -7.495e-03  
 -4.0000e-02   -6.984e-03  
 -3.9000e-02   -6.596e-03  
 -3.8000e-02   -6.326e-03  
 -3.7000e-02   -6.167e-03  
 -3.6000e-02   -6.109e-03  
 -3.5000e-02   -6.144e-03  
 -3.4000e-02   -6.264e-03  
 -3.3000e-02   -6.457e-03  
 -3.2000e-02   -6.715e-03  
 -3.1000e-02   -7.027e-03  
 -3.0000e-02   -7.382e-03  
 -2.9000e-02   -7.770e-03  
 -2.8000e-02   -8.180e-03  
 -2.7000e-02   -8.602e-03  
 -2.6000e-02   -9.027e-03  
 -2.5000e-02   -9.444e-03  
 -2.4000e-02   -9.844e-03  
 -2.3000e-02   -1.022e-02  
 -2.2000e-02   -1.056e-02  
 -2.1000e-02   -1.086e-02  
 -2.0000e-02   -1.112e-02  
 -1.9000e-02   -1.132e-02  
 -1.8000e-02   -1.147e-02  
 -1.7000e-02   -1.155e-02  
 -1.6000e-02   -1.158e-02  
 -1.5000e-02   -1.153e-02  
 -1.4000e-02   -1.142e-02  
 -1.3000e-02   -1.125e-02  
 -1.2000e-02   -1.101e-02  
 -1.1000e-02   -1.071e-02  
 -1.0000e-02   -1.035e-02  
 -9.0000e-03   -9.928e-03  
 -8.0000e-03   -9.456e-03  
 -7.0000e-03   -8.937e-03  
 -6.0000e-03   -8.375e-03  
 -5.0000e-03   -7.775e-03  
 -4.0000e-03   -7.142e-03  
 -3.0000e-03   -6.483e-03  
 -2.0000e-03   -5.800e-03  
 -1.0000e-03   -5.101e-03  
    0.         -4.388e-03  
  1.0000e-03   -3.666e-03  
  2.0000e-03   -2.938e-03  
  3.0000e-03   -2.205e-03  
  4.0000e-03   -1.471e-03  
  5.0000e-03   -7.357e-04  
  6.0000e-03    4.879e-10  
  7.0000e-03    7.357e-04  
  8.0000e-03    1.471e-03  
  9.0000e-03    2.205e-03  
  1.0000e-02    2.938e-03  
  1.1000e-02    3.666e-03  
  1.2000e-02    4.388e-03  
  1.3000e-02    5.101e-03  
  1.4000e-02    5.800e-03  
  1.5000e-02    6.483e-03  
  1.6000e-02    7.142e-03  
  1.7000e-02    7.775e-03  
  1.8000e-02    8.375e-03  
  1.9000e-02    8.937e-03  
  2.0000e-02    9.456e-03  
  2.1000e-02    9.928e-03  
  2.2000e-02    1.035e-02  
  2.3000e-02    1.071e-02  
  2.4000e-02    1.101e-02  
  2.5000e-02    1.125e-02  
  2.6000e-02    1.142e-02  
  2.7000e-02    1.153e-02  
  2.8000e-02    1.158e-02  
  2.9000e-02    1.155e-02  
  3.0000e-02    1.147e-02  
  3.1000e-02    1.132e-02  
  3.2000e-02    1.112e-02  
  3.3000e-02    1.086e-02  
  3.4000e-02    1.056e-02  
  3.5000e-02    1.022e-02  
  3.6000e-02    9.844e-03  
  3.7000e-02    9.444e-03  
  3.8000e-02    9.027e-03  
  3.9000e-02    8.602e-03  
[...]
 -8.2000e-02   -5.226e-05    6.382e-04   -2.676e-05    1.372e-04  
 -8.1000e-02   -5.163e-05    6.381e-04   -2.660e-05    1.473e-04  
 -8.0000e-02   -5.099e-05    6.381e-04   -2.643e-05    1.571e-04  
 -7.9000e-02   -5.035e-05    6.381e-04   -2.626e-05    1.666e-04  
 -7.8000e-02   -4.971e-05    6.381e-04   -2.607e-05    1.759e-04  
 -7.7000e-02   -4.907e-05    6.380e-04   -2.588e-05    1.849e-04  
 -7.6000e-02   -4.844e-05    6.380e-04   -2.568e-05    1.936e-04  
 -7.5000e-02   -4.780e-05    6.380e-04   -2.547e-05    2.020e-04  
 -7.4000e-02   -4.716e-05    6.380e-04   -2.525e-05    2.102e-04  
 -7.3000e-02   -4.652e-05    6.379e-04   -2.502e-05    2.182e-04  
 -7.2000e-02   -4.588e-05    6.379e-04   -2.479e-05    2.258e-04  
 -7.1000e-02   -4.525e-05    6.379e-04   -2.455e-05    2.332e-04  
 -7.0000e-02   -4.461e-05    6.379e-04   -2.430e-05    2.403e-04  
 -6.9000e-02   -4.397e-05    6.378e-04   -2.405e-05    2.472e-04  
 -6.8000e-02   -4.333e-05    6.378e-04   -2.379e-05    2.538e-04  
 -6.7000e-02   -4.270e-05    6.378e-04   -2.352e-05    2.601e-04  
 -6.6000e-02   -4.206e-05    6.378e-04   -2.325e-05    2.662e-04  
 -6.5000e-02   -4.142e-05    6.377e-04   -2.297e-05    2.720e-04  
 -6.4000e-02   -4.078e-05    6.377e-04   -2.269e-05    2.776e-04  
 -6.3000e-02   -4.014e-05    6.377e-04   -2.240e-05    2.829e-04  
 -6.2000e-02   -3.951e-05    6.377e-04   -2.211e-05    2.880e-04  
 -6.1000e-02   -3.887e-05    6.377e-04   -2.181e-05    2.928e-04  
 -6.0000e-02   -3.823e-05    6.376e-04   -2.151e-05    2.974e-04  
 -5.9000e-02   -3.759e-05    6.376e-04   -2.120e-05    3.018e-04  
 -5.8000e-02   -3.696e-05    6.376e-04   -2.089e-05    3.059e-04  
 -5.7000e-02   -3.632e-05    6.376e-04   -2.058e-05    3.098e-04  
 -5.6000e-02   -3.568e-05    6.376e-04   -2.026e-05    3.135e-04  
 -5.5000e-02   -3.504e-05    6.375e-04   -1.994e-05    3.170e-04  
 -5.4000e-02   -3.441e-05    6.375e-04   -1.962e-05    3.203e-04  
 -5.3000e-02   -3.377e-05    6.375e-04   -1.929e-05    3.233e-04  
 -5.2000e-02   -3.313e-05    6.375e-04   -1.896e-05    3.262e-04  
 -5.1000e-02   -3.249e-05    6.375e-04   -1.863e-05    3.288e-04  
 -5.0000e-02   -3.186e-05    6.374e-04   -1.830e-05    3.313e-04  
 -4.9000e-02   -3.122e-05    6.374e-04   -1.796e-05    3.336e-04  
 -4.8000e-02   -3.058e-05    6.374e-04   -1.763e-05    3.357e-04  
 -4.7000e-02   -2.994e-05    6.374e-04   -1.729e-05    3.377e-04  
 -4.6000e-02   -2.931e-05    6.374e-04   -1.695e-05    3.394e-04  
 -4.5000e-02   -2.867e-05    6.374e-04   -1.660e-05    3.411e-04  
 -4.4000e-02   -2.803e-05    6.373e-04   -1.626e-05    3.425e-04  
 -4.3000e-02   -2.739e-05    6.373e-04   -1.591e-05    3.439e-04  
 -4.2000e-02   -2.676e-05    6.373e-04   -1.557e-05    3.450e-04  
 -4.1000e-02   -2.612e-05    6.373e-04   -1.522e-05    3.461e-04  
 -4.0000e-02   -2.548e-05    6.373e-04   -1.487e-05    3.470e-04  
 -3.9000e-02   -2.485e-05    6.373e-04   -1.452e-05    3.478e-04  
 -3.8000e-02   -2.421e-05    6.373e-04   -1.418e-05    3.485e-04  
 -3.7000e-02   -2.357e-05    6.372e-04   -1.383e-05    3.491e-04  
 -3.6000e-02   -2.293e-05    6.372e-04   -1.348e-05    3.496e-04  
 -3.5000e-02   -2.230e-05    6.372e-04   -1.313e-05    3.500e-04  
 -3.4000e-02   -2.166e-05    6.372e-04   -1.278e-05    3.503e-04  
 -3.3000e-02   -2.102e-05    6.372e-04   -1.242e-05    3.505e-04  
 -3.2000e-02   -2.039e-05    6.372e-04   -1.207e-05    3.506e-04  
 -3.1000e-02   -1.975e-05    6.372e-04   -1.172e-05    3.507e-04  
 -3.0000e-02   -1.911e-05    6.372e-04   -1.137e-05    3.507e-04  
 -2.9000e-02   -1.847e-05    6.371e-04   -1.102e-05    3.506e-04  
 -2.8000e-02   -1.784e-05    6.371e-04   -1.067e-05    3.505e-04  
 -2.7000e-02   -1.720e-05    6.371e-04   -1.032e-05    3.503e-04  
 -2.6000e-02   -1.656e-05    6.371e-04   -9.972e-06    3.500e-04  
 -2.5000e-02   -1.593e-05    6.371e-04   -9.623e-06    3.498e-04  
 -2.4000e-02   -1.529e-05    6.371e-04   -9.273e-06    3.495e-04  
 -2.3000e-02   -1.465e-05    6.371e-04   -8.925e-06    3.491e-04  
 -2.2000e-02   -1.401e-05    6.371e-04   -8.576e-06    3.487e-04  
 -2.1000e-02   -1.338e-05    6.371e-04   -8.228e-06    3.483e-04  
 -2.0000e-02   -1.274e-05    6.371e-04   -7.881e-06    3.479e-04  
 -1.9000e-02   -1.210e-05    6.371e-04   -7.534e-06    3.475e-04  
 -1.8000e-02   -1.147e-05    6.370e-04   -7.187e-06    3.470e-04  
 -1.7000e-02   -1.083e-05    6.370e-04   -6.841e-06    3.466e-04  
 -1.6000e-02   -1.019e-05    6.370e-04   -6.496e-06    3.461e-04  
 -1.5000e-02   -9.555e-06    6.370e-04   -6.151e-06    3.456e-04  
 -1.4000e-02   -8.918e-06    6.370e-04   -5.806e-06    3.452e-04  
 -1.3000e-02   -8.281e-06    6.370e-04   -5.462e-06    3.447e-04  
 -1.2000e-02   -7.644e-06    6.370e-04   -5.118e-06    3.442e-04  
 -1.1000e-02   -7.007e-06    6.370e-04   -4.774e-06    3.438e-04  
 -1.0000e-02   -6.370e-06    6.370e-04   -4.432e-06    3.434e-04  
 -9.0000e-03   -5.733e-06    6.370e-04   -4.089e-06    3.429e-04  
 -8.0000e-03   -5.096e-06    6.370e-04   -3.747e-06    3.425e-04  
 -7.0000e-03   -4.459e-06    6.370e-04   -3.405e-06    3.422e-04  
 -6.0000e-03   -3.822e-06    6.370e-04   -3.064e-06    3.418e-04  
 -5.0000e-03   -3.185e-06    6.370e-04   -2.722e-06    3.415e-04  
 -4.0000e-03   -2.548e-06    6.370e-04   -2.381e-06    3.412e-04  
 -3.0000e-03   -1.911e-06    6.370e-04   -2.041e-06    3.409e-04  
 -2.0000e-03   -1.274e-06    6.370e-04   -1.700e-06    3.407e-04  
 -1.0000e-03   -6.370e-07    6.370e-04   -1.360e-06    3.405e-04  
    0.            0.         6.370e-04   -1.020e-06    3.403e-04  
  1.0000e-03    6.370e-07    6.370e-04   -6.799e-07    3.401e-04  
  2.0000e-03    1.274e-06    6.370e-04   -3.399e-07    3.400e-04  
  3.0000e-03    1.911e-06    6.370e-04    1.084e-16    3.400e-04  
  4.0000e-03    2.548e-06    6.370e-04    3.399e-07    3.399e-04  
  5.0000e-03    3.185e-06    6.370e-04    6.799e-07    3.399e-04  
  6.0000e-03    3.822e-06    6.370e-04    1.020e-06    3.400e-04  
  7.0000e-03    4.459e-06    6.370e-04    1.360e-06    3.400e-04  
  8.0000e-03    5.096e-06    6.370e-04    1.700e-06    3.401e-04  
  9.0000e-03    5.733e-06    6.370e-04    2.041e-06    3.403e-04  
  1.0000e-02    6.370e-06    6.370e-04    2.381e-06    3.405e-04  
  1.1000e-02    7.007e-06    6.370e-04    2.722e-06    3.407e-04  
  1.2000e-02    7.644e-06    6.370e-04    3.064e-06    3.409e-04  
  1.3000e-02    8.281e-06    6.370e-04    3.405e-06    3.412e-04  
  1.4000e-02    8.918e-06    6.370e-04    3.747e-06    3.415e-04  
  1.5000e-02    9.555e-06    6.370e-04    4.089e-06    3.418e-04  
  1.6000e-02    1.019e-05    6.370e-04    4.432e-06    3.422e-04  
  1.7000e-02    1.083e-05    6.370e-04    4.774e-06    3.425e-04  
  1.8000e-02    1.147e-05    6.370e-04    5.118e-06    3.429e-04  
  1.9000e-02    1.210e-05    6.370e-04    5.462e-06    3.434e-04  
  2.0000e-02    1.274e-05    6.370e-04    5.806e-06    3.438e-04  
  2.1000e-02    1.338e-05    6.370e-04    6.151e-06    3.442e-04  
  2.2000e-02    1.401e-05    6.371e-04    6.496e-06    3.447e-04  
  2.3000e-02    1.465e-05    6.371e-04    6.841e-06    3.452e-04  
  2.4000e-02    1.529e-05    6.371e-04    7.187e-06    3.456e-04  
  2.5000e-02    1.593e-05    6.371e-04    7.534e-06    3.461e-04  
  2.6000e-02    1.656e-05    6.371e-04    7.881e-06    3.466e-04  
  2.7000e-02    1.720e-05    6.371e-04    8.228e-06    3.470e-04  
  2.8000e-02    1.784e-05    6.371e-04    8.576e-06    3.475e-04  
  2.9000e-02    1.847e-05    6.371e-04    8.925e-06    3.479e-04  
  3.0000e-02    1.911e-05    6.371e-04    9.273e-06    3.483e-04  
  3.1000e-02    1.975e-05    6.371e-04    9.623e-06    3.487e-04  
  3.2000e-02    2.039e-05    6.371e-04    9.972e-06    3.491e-04  
  3.3000e-02    2.102e-05    6.372e-04    1.032e-05    3.495e-04  
  3.4000e-02    2.166e-05    6.372e-04    1.067e-05    3.498e-04  
  3.5000e-02    2.230e-05    6.372e-04    1.102e-05    3.500e-04  
  3.6000e-02    2.293e-05    6.372e-04    1.137e-05    3.503e-04  
  3.7000e-02    2.357e-05    6.372e-04    1.172e-05    3.505e-04  
  3.8000e-02    2.421e-05    6.372e-04    1.207e-05    3.506e-04  
  3.9000e-02    2.485e-05    6.372e-04    1.242e-05    3.507e-04  
  4.0000e-02    2.548e-05    6.372e-04    1.278e-05    3.507e-04  
  4.1000e-02    2.612e-05    6.373e-04    1.313e-05    3.506e-04  
  4.2000e-02    2.676e-05    6.373e-04    1.348e-05    3.505e-04  
  4.3000e-02    2.739e-05    6.373e-04    1.383e-05    3.503e-04  
  4.4000e-02    2.803e-05    6.373e-04    1.418e-05    3.500e-04  
  4.5000e-02    2.867e-05    6.373e-04    1.452e-05    3.496e-04  
  4.6000e-02    2.931e-05    6.373e-04    1.487e-05    3.491e-04  
  4.7000e-02    2.994e-05    6.373e-04    1.522e-05    3.485e-04  
  4.8000e-02    3.058e-05    6.374e-04    1.557e-05    3.478e-04  
  4.9000e-02    3.122e-05    6.374e-04    1.591e-05    3.470e-04  
  5.0000e-02    3.186e-05    6.374e-04    1.626e-05    3.461e-04  
  5.1000e-02    3.249e-05    6.374e-04    1.660e-05    3.450e-04  
  5.2000e-02    3.313e-05    6.374e-04    1.695e-05    3.439e-04  
  5.3000e-02    3.377e-05    6.374e-04    1.729e-05    3.425e-04  
  5.4000e-02    3.441e-05    6.375e-04    1.763e-05    3.411e-04  
  5.5000e-02    3.504e-05    6.375e-04    1.796e-05    3.394e-04  
  5.6000e-02    3.568e-05    6.375e-04    1.830e-05    3.377e-04  
  5.7000e-02    3.632e-05    6.375e-04    1.863e-05    3.357e-04  
  5.8000e-02    3.696e-05    6.375e-04    1.896e-05    3.336e-04  
  5.9000e-02    3.759e-05    6.376e-04    1.929e-05    3.313e-04  
  6.0000e-02    3.823e-05    6.376e-04    1.962e-05    3.288e-04  
  6.1000e-02    3.887e-05    6.376e-04    1.994e-05    3.262e-04  
  6.2000e-02    3.951e-05    6.376e-04    2.026e-05    3.233e-04  
  6.3000e-02    4.014e-05    6.376e-04    2.058e-05    3.203e-04  
  6.4000e-02    4.078e-05    6.377e-04    2.089e-05    3.170e-04  
  6.5000e-02    4.142e-05    6.377e-04    2.120e-05    3.135e-04  
  6.6000e-02    4.206e-05    6.377e-04    2.151e-05    3.098e-04  
  6.7000e-02    4.270e-05    6.377e-04    2.181e-05    3.059e-04  
  6.8000e-02    4.333e-05    6.377e-04    2.211e-05    3.018e-04  
  6.9000e-02    4.397e-05    6.378e-04    2.240e-05    2.974e-04  
  7.0000e-02    4.461e-05    6.378e-04    2.269e-05    2.928e-04  
  7.1000e-02    4.525e-05    6.378e-04    2.297e-05    2.880e-04  
  7.2000e-02    4.588e-05    6.378e-04    2.325e-05    2.829e-04  
  7.3000e-02    4.652e-05    6.379e-04    2.352e-05    2.776e-04  
  7.4000e-02    4.716e-05    6.379e-04    2.379e-05    2.720e-04  
  7.5000e-02    4.780e-05    6.379e-04    2.405e-05    2.662e-04  
  7.6000e-02    4.844e-05    6.379e-04    2.430e-05    2.601e-04  
  7.7000e-02    4.907e-05    6.380e-04    2.455e-05    2.538e-04  
  7.8000e-02    4.971e-05    6.380e-04    2.479e-05    2.472e-04  
  7.9000e-02    5.035e-05    6.380e-04    2.502e-05    2.403e-04  
  8.0000e-02    5.099e-05    6.380e-04    2.525e-05    2.332e-04  
  8.1000e-02    5.163e-05    6.381e-04    2.547e-05    2.258e-04  
  8.2000e-02    5.226e-05    6.381e-04    2.568e-05    2.182e-04  
  8.3000e-02    5.290e-05    6.381e-04    2.588e-05    2.102e-04  
  8.4000e-02    5.354e-05    6.381e-04    2.607e-05    2.020e-04  
  8.5000e-02    5.418e-05    6.382e-04    2.626e-05    1.936e-04  
  8.6000e-02    5.482e-05    6.382e-04    2.643e-05    1.849e-04  
  8.7000e-02    5.546e-05    6.382e-04    2.660e-05    1.759e-04  
  8.8000e-02    5.609e-05    6.382e-04    2.676e-05    1.666e-04  
  8.9000e-02    5.673e-05    6.383e-04    2.690e-05    1.571e-04  
  9.0000e-02    5.737e-05    6.383e-04    2.704e-05    1.473e-04  
  9.1000e-02    5.801e-05    6.383e-04    2.717e-05    1.372e-04  
  9.2000e-02    5.865e-05    6.384e-04    2.728e-05    1.269e-04  
  9.3000e-02    5.929e-05    6.384e-04    2.739e-05    1.164e-04  
  9.4000e-02    5.992e-05    6.384e-04    2.748e-05    1.055e-04  
  9.5000e-02    6.056e-05    6.384e-04    2.757e-05    9.447e-05  
  9.6000e-02    6.120e-05    6.385e-04    2.764e-05    8.316e-05  
  9.7000e-02    6.184e-05    6.385e-04    2.770e-05    7.161e-05  
  9.8000e-02    6.248e-05    6.385e-04    2.775e-05    5.983e-05  
  9.9000e-02    6.312e-05    6.385e-04    2.778e-05    4.781e-05  
    0.10000     6.375e-05    6.386e-04    2.781e-05    3.557e-05  
y
x

        volt    param      
                    gx4    
   -0.10000    -2.140e-03  
 -9.9000e-02     -0.9410   
 -9.8000e-02   -3.764e+03  
 -9.7000e-02   -7.283e+05  
 -9.6000e-02   -9.857e+07  
 -9.5000e-02    3.004e+08  
 -9.4000e-02   -3.021e+08  
 -9.3000e-02    1.010e+08  
 -9.2000e-02    1.288e-02  
 -9.1000e-02    1.267e-02  
 -9.0000e-02    1.246e-02  
 -8.9000e-02    1.224e-02  
 -8.8000e-02    1.202e-02  
 -8.7000e-02    1.178e-02  
 -8.6000e-02    1.155e-02  
 -8.5000e-02    1.131e-02  
 -8.4000e-02    1.106e-02  
 -8.3000e-02    1.082e-02  
 -8.2000e-02    1.057e-02  
 -8.1000e-02    1.031e-02  
 -8.0000e-02    1.005e-02  
 -7.9000e-02    9.789e-03  
 -7.8000e-02    9.527e-03  
 -7.7000e-02    9.263e-03  
 -7.6000e-02    8.996e-03  
 -7.5000e-02    8.730e-03  
 -7.4000e-02    8.462e-03  
 -7.3000e-02    8.194e-03  
 -7.2000e-02    7.925e-03  
 -7.1000e-02    7.660e-03  
 -7.0000e-02    7.390e-03  
 -6.9000e-02    7.127e-03  
 -6.8000e-02    6.861e-03  
 -6.7000e-02    6.599e-03  
 -6.6000e-02    6.339e-03  
 -6.5000e-02    6.080e-03  
 -6.4000e-02    5.825e-03  
 -6.3000e-02    5.571e-03  
 -6.2000e-02    5.322e-03  
 -6.1000e-02    5.076e-03  
 -6.0000e-02    4.833e-03  
 -5.9000e-02    4.595e-03  
 -5.8000e-02    4.360e-03  
 -5.7000e-02    4.132e-03  
 -5.6000e-02    3.905e-03  
 -5.5000e-02    3.686e-03  
 -5.4000e-02    3.470e-03  
 -5.3000e-02    3.260e-03  
 -5.2000e-02    3.055e-03  
 -5.1000e-02    2.855e-03  
 -5.0000e-02    2.662e-03  
 -4.9000e-02    2.474e-03  
 -4.8000e-02    2.291e-03  
 -4.7000e-02    2.116e-03  
 -4.6000e-02    1.946e-03  
 -4.5000e-02    1.781e-03  
 -4.4000e-02    1.624e-03  
 -4.3000e-02    1.472e-03  
 -4.2000e-02    1.327e-03  
 -4.1000e-02    1.188e-03  
 -4.0000e-02    1.054e-03  
 -3.9000e-02    9.281e-04  
 -3.8000e-02    8.069e-04  
 -3.7000e-02    6.929e-04  
 -3.6000e-02    5.843e-04  
 -3.5000e-02    4.818e-04  
 -3.4000e-02    3.856e-04  
 -3.3000e-02    2.949e-04  
 -3.2000e-02    2.101e-04  
 -3.1000e-02    1.311e-04  
 -3.0000e-02    5.735e-05  
 -2.9000e-02   -1.089e-05  
 -2.8000e-02   -7.343e-05  
 -2.7000e-02   -1.315e-04  
 -2.6000e-02   -1.835e-04  
 -2.5000e-02   -2.319e-04  
 -2.4000e-02   -2.741e-04  
 -2.3000e-02   -3.126e-04  
 -2.2000e-02   -3.462e-04  
 -2.1000e-02   -3.755e-04  
 -2.0000e-02   -4.006e-04  
 -1.9000e-02   -4.211e-04  
 -1.8000e-02   -4.388e-04  
 -1.7000e-02   -4.510e-04  
 -1.6000e-02   -4.609e-04  
 -1.5000e-02   -4.665e-04  
 -1.4000e-02   -4.686e-04  
 -1.3000e-02   -4.677e-04  
 -1.2000e-02   -4.636e-04  
 -1.1000e-02   -4.556e-04  
 -1.0000e-02   -4.459e-04  
 -9.0000e-03   -4.321e-04  
 -8.0000e-03   -4.169e-04  
 -7.0000e-03   -3.976e-04  
 -6.0000e-03   -3.775e-04  
 -5.0000e-03   -3.540e-04  
 -4.0000e-03   -3.287e-04  
 -3.0000e-03   -3.016e-04  
 -2.0000e-03   -2.727e-04  
 -1.0000e-03   -2.421e-04  
    0.         -2.099e-04  
  1.0000e-03   -1.774e-04  
  2.0000e-03   -1.425e-04  
  3.0000e-03   -1.080e-04  
  4.0000e-03   -7.233e-05  
  5.0000e-03   -3.604e-05  
  6.0000e-03   -8.674e-10  
  7.0000e-03    3.604e-05  
  8.0000e-03    7.234e-05  
  9.0000e-03    1.080e-04  
  1.0000e-02    1.425e-04  
  1.1000e-02    1.774e-04  
  1.2000e-02    2.100e-04  
  1.3000e-02    2.420e-04  
  1.4000e-02    2.728e-04  
  1.5000e-02    3.016e-04  
  1.6000e-02    3.287e-04  
  1.7000e-02    3.540e-04  
  1.8000e-02    3.775e-04  
  1.9000e-02    3.976e-04  
  2.0000e-02    4.169e-04  
  2.1000e-02    4.321e-04  
  2.2000e-02    4.459e-04  
  2.3000e-02    4.556e-04  
  2.4000e-02    4.636e-04  
  2.5000e-02    4.677e-04  
  2.6000e-02    4.686e-04  
  2.7000e-02    4.666e-04  
  2.8000e-02    4.608e-04  
  2.9000e-02    4.511e-04  
  3.0000e-02    4.387e-04  
  3.1000e-02    4.212e-04  
  3.2000e-02    4.005e-04  
  3.3000e-02    3.756e-04  
  3.4000e-02    3.462e-04  
  3.5000e-02    3.125e-04  
  3.6000e-02    2.741e-04  
  3.7000e-02    2.319e-04  
  3.8000e-02    1.834e-04  
  3.9000e-02    1.315e-04  
  4.0000e-02    7.349e-05  
  4.1000e-02    1.081e-05  
  4.2000e-02   -5.728e-05  
  4.3000e-02   -1.311e-04  
  4.4000e-02   -2.101e-04  
  4.5000e-02   -2.947e-04  
  4.6000e-02   -3.857e-04  
  4.7000e-02   -4.818e-04  
  4.8000e-02   -5.841e-04  
  4.9000e-02   -6.932e-04  
  5.0000e-02   -8.066e-04  
  5.1000e-02   -9.282e-04  
  5.2000e-02   -1.054e-03  
  5.3000e-02   -1.188e-03  
  5.4000e-02   -1.327e-03  
  5.5000e-02   -1.472e-03  
  5.6000e-02   -1.624e-03  
  5.7000e-02   -1.781e-03  
  5.8000e-02   -1.946e-03  
  5.9000e-02   -2.116e-03  
  6.0000e-02   -2.291e-03  
  6.1000e-02   -2.474e-03  
  6.2000e-02   -2.662e-03  
  6.3000e-02   -2.855e-03  
  6.4000e-02   -3.055e-03  
  6.5000e-02   -3.259e-03  
  6.6000e-02   -3.470e-03  
  6.7000e-02   -3.686e-03  
  6.8000e-02   -3.905e-03  
  6.9000e-02   -4.131e-03  
  7.0000e-02   -4.360e-03  
  7.1000e-02   -4.595e-03  
  7.2000e-02   -4.833e-03  
  7.3000e-02   -5.076e-03  
  7.4000e-02   -5.322e-03  
  7.5000e-02   -5.572e-03  
  7.6000e-02   -5.825e-03  
  7.7000e-02   -6.080e-03  
  7.8000e-02   -6.339e-03  
  7.9000e-02   -6.599e-03  
  8.0000e-02   -6.861e-03  
  8.1000e-02   -7.127e-03  
  8.2000e-02   -7.391e-03  
  8.3000e-02   -7.659e-03  
  8.4000e-02   -7.925e-03  
  8.5000e-02   -8.195e-03  
  8.6000e-02   -8.462e-03  
  8.7000e-02   -8.729e-03  
  8.8000e-02   -8.997e-03  
  8.9000e-02   -9.262e-03  
  9.0000e-02   -9.527e-03  
  9.1000e-02   -9.789e-03  
  9.2000e-02   -1.005e-02  
  9.3000e-02   -1.031e-02  
  9.4000e-02   -1.056e-02  
  9.5000e-02   -1.082e-02  
  9.6000e-02   -1.106e-02  
  9.7000e-02   -1.131e-02  
  9.8000e-02   -1.155e-02  
  9.9000e-02   -1.178e-02  
    0.10000    -1.202e-02  
y
-----------------------------------------------

          ***** job concluded
1****** HSPICE -- G-2012.06 32-BIT (May 27 2012) RHEL32 ******                  
 ******  
 *sample netlist for bsim6.0

  ******  job statistics summary tnom=  25.000 temp=  25.000 *****
  
  
 ******  Machine Information  ******
 CPU:
 model name	: AMD Opteron(tm) Processor 248
 cpu MHz	: 2200.023
  
 OS:
 Linux version 2.6.9-22.EL (bhcompile@crowe.devel.redhat.com) (gcc version 3.4.4 20050721 (Red Hat 3.4.4-2)) #1 Mon Sep 19 17:49:49 EDT 2005


  ******  HSPICE Threads Information  ******

  Command Line Threads Count :     1
  Available CPU Count        :     1
  Actual Threads Count       :     1


  ******  Circuit Statistics  ******
  # nodes       =      14 # elements   =       5
  # resistors   =       0 # capacitors =       0 # inductors   =       0
  # mutual_inds =       0 # vccs       =       0 # vcvs        =       1
  # cccs        =       0 # ccvs       =       0 # volt_srcs   =       3
  # curr_srcs   =       0 # diodes     =       0 # bjts        =       0
  # jfets       =       0 # mosfets    =       0 # U elements  =       0
  # T elements  =       0 # W elements =       0 # B elements  =       0
  # S elements  =       0 # P elements =       0 # va device   =       1
  # vector_srcs =       0 # N elements =       0


  ******  Runtime Statistics (seconds)  ******

  analysis           time    # points   tot. iter  conv.iter
  op point           0.00           1           0
  dc sweep           0.23        1206        2424
  readin             2.64
  errchk             0.02
  setup              0.00
  output             0.02


           peak memory used        112.64 megabytes
           total cpu time            2.91 seconds
           total elapsed time       12.26 seconds
           job started at     21:44:02 05/05/2013
           job ended   at     21:44:14 05/05/2013


 lic: Release hspice token(s) 
 lic: total license checkout elapse time:        0.21(s)


pVA concluded on Sun May  5 21:44:14 2013

