Using: /cad/synopsys/Hspice/G-2012.06/hspice/linux/hspice idvd_nmos.sp
 ****** HSPICE -- G-2012.06 32-BIT (May 27 2012) RHEL32 ******                  
  Copyright (C) 2012 Synopsys, Inc. All Rights Reserved.                        
  Unpublished-rights reserved under US copyright laws.
  This program is protected by law and is subject to the
  terms and conditions of the license agreement from Synopsys.
  Use of this program is your acceptance to be bound by the
  license agreement. HSPICE is the trademark of Synopsys, Inc.
  Input File: idvd_nmos.sp                                                      
  Command line options: idvd_nmos.sp
 lic: No 'setenv LM_LICENSE_FILE' in current environment' 
 lic:  
 lic: FLEXlm: v10.8 
 lic: USER:   agarwalh             HOSTNAME: xcel1.vlsi.iitk.ac.in 
 lic: HOSTID: 0008a1953eea         PID:      943 
 lic: Using FLEXlm license file: 
 lic: 27000@xcel0 
 lic: Checkout 1 hspice 
 lic: License/Maintenance for hspice will expire on 15-jun-2013/2011.09 
 lic: 1(in_use)/5(total) FLOATING license(s) on SERVER xcel0 
 lic:   
 Init: read install configuration file: /cad/synopsys/Hspice/G-2012.06/hspice/meta.cfg


 --------------------------------------------------------
|                                                        |
|          Synopsys Unified Verilog-A (pVA v2.0)         |
|                                                        |
|           Machine Name: xcel1.vlsi.iitk.ac.in          |
| Copyright (c) 2011 Synopsys Inc., All Rights Reserved. |
|                                                        |
 --------------------------------------------------------

libepva built by pvamgr synmake_pva_build  on Tue May  1 20:03:16 PDT 2012
HSP_HOME:   /cad/synopsys/Hspice/G-2012.06/hspice
HSP_ARCH:   linux
HSP_GCC :   /cad/synopsys/Hspice/G-2012.06/hspice/GNU/amd64/gcc-4.5.2-static/bin/gcc -m32 
HSP_GCC_VER:   4.5.2
Working-Dir: /users/phd/agarwalh/synopsys_designs/BSIM6/QA/BSIM6 Release/Release_5_May
Args:        -p hsp -t spi -f idvd_nmos.pvadir/pvaHDL.lis -o idvd_nmos.pvadir 


Begin of pVA compiling on Sun May  5 21:46:08 2013

Parsing './bsim6.va'
Parsing include file '/cad/synopsys/Hspice/G-2012.06/hspice/include/constants.vams'
Parsing include file '/cad/synopsys/Hspice/G-2012.06/hspice/include/disciplines.vams'

End of pVA compiling on Sun May  5 21:46:08 2013


End of build pVA DB on Sun May  5 21:46:08 2013

*pvaI* Module (bsim6): 4 unexpanded port, 0 init, 2191 behav, 65 contrib, 43/2272 expr(s)
*pvaI* Resizing DB size for v count = 1
*pvaI*        Has DIS (SB), 3 afCount
*pvaI*        0 const-G and 0 const-C, Has switch branch.
*pvaI* Module (bsim6): generated 7 flow node(s) during compilation.

End of pVA genC on Sun May  5 21:46:10 2013

*pvaI* #### Total 316 line-size(s), 43 expr(s), 65 contr(s), 0 init(s), 2191 behav(s), 4 port(s)

Generating idvd_nmos.pvadir/pvaRTL_linux.so


End of submitting pVA idvd_nmos.pvadir/pvaRTL.mak on Sun May  5 21:46:20 2013


End of pVA elaboration on Sun May  5 21:46:20 2013

 Loading pVA library idvd_nmos.pvadir/pvaRTL_linux.so...
1****** HSPICE -- G-2012.06 32-BIT (May 27 2012) RHEL32 ******                  
 ******  
 *sample netlist for bsim6.0

  ******  circuit name directory
 circuit number to circuit name directory
   number circuitname                     definition         multiplier
        0 main circuit
        1 x1.                             bsim6(va)          1.00 
*pvaI* Creating Verilog-A module 'bsim6' for X1
  
      
 *****************************************************************
 ******  option summary
 ******
 runlvl  = 3         bypass  = 2         
  Opening plot unit= 15
 file=idvd_nmos.pa0                                                            

 ******  
 *sample netlist for bsim6.0

  ******  dc transfer curves tnom=  25.000 temp=  27.000 *****

   *** source        0:vg =    0.4000        ***

x

        volt    param        param      
                    ids          gd     
    0.            0.           0.       
  1.0000e-02    1.331e-06      0.       
  2.0000e-02    2.603e-06    1.331e-04  
  3.0000e-02    3.814e-06    1.272e-04  
  4.0000e-02    4.966e-06    1.212e-04  
  5.0000e-02    6.057e-06    1.151e-04  
  6.0000e-02    7.088e-06    1.091e-04  
  7.0000e-02    8.058e-06    1.031e-04  
  8.0000e-02    8.969e-06    9.707e-05  
  9.0000e-02    9.820e-06    9.107e-05  
    0.10000     1.061e-05    8.510e-05  
    0.11000     1.134e-05    7.917e-05  
    0.12000     1.202e-05    7.330e-05  
    0.13000     1.264e-05    6.749e-05  
    0.14000     1.320e-05    6.176e-05  
    0.15000     1.370e-05    5.612e-05  
    0.16000     1.416e-05    5.061e-05  
    0.17000     1.456e-05    4.523e-05  
    0.18000     1.491e-05    4.003e-05  
    0.19000     1.521e-05    3.504e-05  
    0.20000     1.547e-05    3.031e-05  
    0.21000     1.569e-05    2.588e-05  
    0.22000     1.587e-05    2.180e-05  
    0.23000     1.602e-05    1.811e-05  
    0.24000     1.614e-05    1.485e-05  
    0.25000     1.623e-05    1.205e-05  
    0.26000     1.631e-05    9.698e-06  
    0.27000     1.638e-05    7.788e-06  
    0.28000     1.643e-05    6.280e-06  
    0.29000     1.647e-05    5.126e-06  
    0.30000     1.651e-05    4.269e-06  
    0.31000     1.654e-05    3.653e-06  
    0.32000     1.657e-05    3.224e-06  
    0.33000     1.659e-05    2.936e-06  
    0.34000     1.662e-05    2.751e-06  
    0.35000     1.665e-05    2.639e-06  
    0.36000     1.667e-05    2.577e-06  
    0.37000     1.670e-05    2.550e-06  
    0.38000     1.672e-05    2.543e-06  
    0.39000     1.675e-05    2.550e-06  
    0.40000     1.677e-05    2.563e-06  
    0.41000     1.680e-05    2.581e-06  
    0.42000     1.683e-05    2.600e-06  
    0.43000     1.685e-05    2.618e-06  
    0.44000     1.688e-05    2.635e-06  
    0.45000     1.691e-05    2.651e-06  
    0.46000     1.693e-05    2.665e-06  
    0.47000     1.696e-05    2.678e-06  
    0.48000     1.699e-05    2.689e-06  
    0.49000     1.701e-05    2.698e-06  
    0.50000     1.704e-05    2.706e-06  
    0.51000     1.707e-05    2.713e-06  
    0.52000     1.710e-05    2.719e-06  
    0.53000     1.712e-05    2.723e-06  
    0.54000     1.715e-05    2.727e-06  
    0.55000     1.718e-05    2.731e-06  
    0.56000     1.721e-05    2.734e-06  
    0.57000     1.723e-05    2.736e-06  
    0.58000     1.726e-05    2.738e-06  
    0.59000     1.729e-05    2.740e-06  
    0.60000     1.731e-05    2.741e-06  
    0.61000     1.734e-05    2.742e-06  
    0.62000     1.737e-05    2.743e-06  
    0.63000     1.740e-05    2.744e-06  
    0.64000     1.742e-05    2.744e-06  
    0.65000     1.745e-05    2.744e-06  
    0.66000     1.748e-05    2.745e-06  
    0.67000     1.751e-05    2.745e-06  
    0.68000     1.753e-05    2.745e-06  
    0.69000     1.756e-05    2.745e-06  
    0.70000     1.759e-05    2.745e-06  
    0.71000     1.762e-05    2.745e-06  
    0.72000     1.764e-05    2.744e-06  
    0.73000     1.767e-05    2.744e-06  
    0.74000     1.770e-05    2.744e-06  
    0.75000     1.773e-05    2.744e-06  
    0.76000     1.775e-05    2.743e-06  
    0.77000     1.778e-05    2.743e-06  
    0.78000     1.781e-05    2.743e-06  
    0.79000     1.784e-05    2.742e-06  
    0.80000     1.786e-05    2.742e-06  
    0.81000     1.789e-05    2.742e-06  
    0.82000     1.792e-05    2.741e-06  
    0.83000     1.795e-05    2.741e-06  
    0.84000     1.797e-05    2.741e-06  
    0.85000     1.800e-05    2.740e-06  
    0.86000     1.803e-05    2.740e-06  
    0.87000     1.806e-05    2.740e-06  
    0.88000     1.808e-05    2.739e-06  
    0.89000     1.811e-05    2.739e-06  
    0.90000     1.814e-05    2.739e-06  
    0.91000     1.816e-05    2.738e-06  
    0.92000     1.819e-05    2.738e-06  
    0.93000     1.822e-05    2.737e-06  
    0.94000     1.825e-05    2.737e-06  
    0.95000     1.827e-05    2.737e-06  
    0.96000     1.830e-05    2.736e-06  
    0.97000     1.833e-05    2.736e-06  
    0.98000     1.836e-05    2.736e-06  
    0.99000     1.838e-05    2.735e-06  
    1.00000     1.841e-05    2.735e-06  
    1.01000     1.844e-05    2.735e-06  
    1.02000     1.847e-05    2.735e-06  
    1.03000     1.849e-05    2.734e-06  
    1.04000     1.852e-05    2.734e-06  
    1.05000     1.855e-05    2.734e-06  
    1.06000     1.858e-05    2.733e-06  
    1.07000     1.860e-05    2.733e-06  
    1.08000     1.863e-05    2.733e-06  
    1.09000     1.866e-05    2.733e-06  
    1.10000     1.868e-05    2.732e-06  
    1.11000     1.871e-05    2.732e-06  
    1.12000     1.874e-05    2.732e-06  
    1.13000     1.877e-05    2.732e-06  
    1.14000     1.879e-05    2.731e-06  
    1.15000     1.882e-05    2.731e-06  
    1.16000     1.885e-05    2.731e-06  
    1.17000     1.888e-05    2.731e-06  
    1.18000     1.890e-05    2.730e-06  
    1.19000     1.893e-05    2.730e-06  
    1.20000     1.896e-05    2.730e-06  
    1.21000     1.898e-05    2.730e-06  
    1.22000     1.901e-05    2.730e-06  
    1.23000     1.904e-05    2.730e-06  
    1.24000     1.907e-05    2.729e-06  
    1.25000     1.909e-05    2.729e-06  
    1.26000     1.912e-05    2.729e-06  
    1.27000     1.915e-05    2.729e-06  
    1.28000     1.918e-05    2.729e-06  
    1.29000     1.920e-05    2.729e-06  
    1.30000     1.923e-05    2.729e-06  
y
-----------------------------------------------
 ******  
 *sample netlist for bsim6.0

  ******  dc transfer curves tnom=  25.000 temp=  27.000 *****

   *** source        0:vg =    0.7000        ***

x

        volt    param        param      
                    ids          gd     
    0.            0.           0.       
  1.0000e-02    2.725e-06   -1.923e-03  
  2.0000e-02    5.406e-06    2.725e-04  
  3.0000e-02    8.043e-06    2.681e-04  
  4.0000e-02    1.063e-05    2.637e-04  
  5.0000e-02    1.318e-05    2.591e-04  
  6.0000e-02    1.568e-05    2.545e-04  
  7.0000e-02    1.813e-05    2.498e-04  
  8.0000e-02    2.053e-05    2.450e-04  
  9.0000e-02    2.288e-05    2.402e-04  
    0.10000     2.518e-05    2.353e-04  
    0.11000     2.744e-05    2.303e-04  
    0.12000     2.964e-05    2.252e-04  
    0.13000     3.179e-05    2.201e-04  
    0.14000     3.388e-05    2.149e-04  
    0.15000     3.593e-05    2.096e-04  
    0.16000     3.791e-05    2.043e-04  
    0.17000     3.985e-05    1.989e-04  
    0.18000     4.173e-05    1.935e-04  
    0.19000     4.355e-05    1.880e-04  
    0.20000     4.532e-05    1.824e-04  
    0.21000     4.703e-05    1.768e-04  
    0.22000     4.869e-05    1.711e-04  
    0.23000     5.028e-05    1.653e-04  
    0.24000     5.182e-05    1.595e-04  
    0.25000     5.329e-05    1.536e-04  
    0.26000     5.471e-05    1.477e-04  
    0.27000     5.607e-05    1.417e-04  
    0.28000     5.736e-05    1.357e-04  
    0.29000     5.860e-05    1.296e-04  
    0.30000     5.977e-05    1.234e-04  
    0.31000     6.088e-05    1.173e-04  
    0.32000     6.193e-05    1.111e-04  
    0.33000     6.292e-05    1.049e-04  
    0.34000     6.384e-05    9.871e-05  
    0.35000     6.471e-05    9.255e-05  
    0.36000     6.551e-05    8.644e-05  
    0.37000     6.626e-05    8.039e-05  
    0.38000     6.694e-05    7.445e-05  
    0.39000     6.757e-05    6.863e-05  
    0.40000     6.815e-05    6.297e-05  
    0.41000     6.867e-05    5.751e-05  
    0.42000     6.914e-05    5.226e-05  
    0.43000     6.957e-05    4.727e-05  
    0.44000     6.995e-05    4.256e-05  
    0.45000     7.029e-05    3.815e-05  
    0.46000     7.059e-05    3.407e-05  
    0.47000     7.086e-05    3.032e-05  
    0.48000     7.110e-05    2.692e-05  
    0.49000     7.131e-05    2.387e-05  
    0.50000     7.150e-05    2.115e-05  
    0.51000     7.167e-05    1.875e-05  
    0.52000     7.182e-05    1.666e-05  
    0.53000     7.195e-05    1.486e-05  
    0.54000     7.207e-05    1.332e-05  
    0.55000     7.218e-05    1.202e-05  
    0.56000     7.228e-05    1.092e-05  
    0.57000     7.237e-05    9.999e-06  
    0.58000     7.246e-05    9.238e-06  
    0.59000     7.254e-05    8.612e-06  
    0.60000     7.261e-05    8.098e-06  
    0.61000     7.269e-05    7.680e-06  
    0.62000     7.276e-05    7.340e-06  
    0.63000     7.283e-05    7.065e-06  
    0.64000     7.289e-05    6.844e-06  
    0.65000     7.296e-05    6.666e-06  
    0.66000     7.302e-05    6.524e-06  
    0.67000     7.309e-05    6.410e-06  
    0.68000     7.315e-05    6.320e-06  
    0.69000     7.321e-05    6.248e-06  
    0.70000     7.327e-05    6.191e-06  
    0.71000     7.333e-05    6.146e-06  
    0.72000     7.339e-05    6.111e-06  
    0.73000     7.345e-05    6.083e-06  
    0.74000     7.351e-05    6.061e-06  
    0.75000     7.357e-05    6.044e-06  
    0.76000     7.364e-05    6.031e-06  
    0.77000     7.370e-05    6.020e-06  
    0.78000     7.376e-05    6.012e-06  
    0.79000     7.382e-05    6.006e-06  
    0.80000     7.388e-05    6.002e-06  
    0.81000     7.394e-05    5.998e-06  
    0.82000     7.400e-05    5.995e-06  
    0.83000     7.406e-05    5.993e-06  
    0.84000     7.411e-05    5.991e-06  
    0.85000     7.417e-05    5.990e-06  
    0.86000     7.423e-05    5.989e-06  
    0.87000     7.429e-05    5.988e-06  
    0.88000     7.435e-05    5.987e-06  
    0.89000     7.441e-05    5.987e-06  
    0.90000     7.447e-05    5.986e-06  
    0.91000     7.453e-05    5.985e-06  
    0.92000     7.459e-05    5.985e-06  
    0.93000     7.465e-05    5.984e-06  
    0.94000     7.471e-05    5.984e-06  
    0.95000     7.477e-05    5.983e-06  
    0.96000     7.483e-05    5.982e-06  
    0.97000     7.489e-05    5.981e-06  
    0.98000     7.495e-05    5.981e-06  
    0.99000     7.501e-05    5.980e-06  
    1.00000     7.507e-05    5.979e-06  
    1.01000     7.513e-05    5.978e-06  
    1.02000     7.519e-05    5.977e-06  
    1.03000     7.525e-05    5.976e-06  
    1.04000     7.531e-05    5.975e-06  
    1.05000     7.537e-05    5.974e-06  
    1.06000     7.543e-05    5.973e-06  
    1.07000     7.549e-05    5.972e-06  
    1.08000     7.555e-05    5.971e-06  
    1.09000     7.561e-05    5.969e-06  
    1.10000     7.567e-05    5.968e-06  
    1.11000     7.573e-05    5.967e-06  
    1.12000     7.579e-05    5.966e-06  
    1.13000     7.585e-05    5.965e-06  
    1.14000     7.591e-05    5.963e-06  
    1.15000     7.597e-05    5.962e-06  
    1.16000     7.603e-05    5.961e-06  
    1.17000     7.609e-05    5.960e-06  
    1.18000     7.615e-05    5.958e-06  
    1.19000     7.621e-05    5.957e-06  
    1.20000     7.627e-05    5.956e-06  
    1.21000     7.633e-05    5.954e-06  
    1.22000     7.638e-05    5.953e-06  
    1.23000     7.644e-05    5.952e-06  
    1.24000     7.650e-05    5.950e-06  
    1.25000     7.656e-05    5.949e-06  
    1.26000     7.662e-05    5.948e-06  
    1.27000     7.668e-05    5.947e-06  
    1.28000     7.674e-05    5.945e-06  
    1.29000     7.680e-05    5.944e-06  
    1.30000     7.686e-05    5.943e-06  
y
-----------------------------------------------
 ******  
 *sample netlist for bsim6.0

  ******  dc transfer curves tnom=  25.000 temp=  27.000 *****

   *** source        0:vg =    1.0000        ***

x

        volt    param        param      
                    ids          gd     
    0.            0.           0.       
  1.0000e-02    3.563e-06   -7.686e-03  
  2.0000e-02    7.101e-06    3.563e-04  
  3.0000e-02    1.061e-05    3.538e-04  
  4.0000e-02    1.410e-05    3.512e-04  
  5.0000e-02    1.756e-05    3.486e-04  
  6.0000e-02    2.099e-05    3.459e-04  
  7.0000e-02    2.439e-05    3.431e-04  
  8.0000e-02    2.777e-05    3.403e-04  
  9.0000e-02    3.111e-05    3.374e-04  
    0.10000     3.442e-05    3.344e-04  
    0.11000     3.771e-05    3.314e-04  
    0.12000     4.096e-05    3.283e-04  
    0.13000     4.418e-05    3.251e-04  
    0.14000     4.736e-05    3.218e-04  
    0.15000     5.051e-05    3.185e-04  
    0.16000     5.363e-05    3.152e-04  
    0.17000     5.671e-05    3.117e-04  
    0.18000     5.976e-05    3.082e-04  
    0.19000     6.277e-05    3.046e-04  
    0.20000     6.574e-05    3.010e-04  
    0.21000     6.868e-05    2.973e-04  
    0.22000     7.157e-05    2.935e-04  
    0.23000     7.443e-05    2.896e-04  
    0.24000     7.725e-05    2.857e-04  
    0.25000     8.002e-05    2.817e-04  
    0.26000     8.276e-05    2.777e-04  
    0.27000     8.545e-05    2.735e-04  
    0.28000     8.810e-05    2.693e-04  
    0.29000     9.071e-05    2.650e-04  
    0.30000     9.327e-05    2.607e-04  
    0.31000     9.579e-05    2.562e-04  
    0.32000     9.826e-05    2.517e-04  
    0.33000     1.007e-04    2.471e-04  
    0.34000     1.031e-04    2.424e-04  
    0.35000     1.054e-04    2.377e-04  
    0.36000     1.077e-04    2.328e-04  
    0.37000     1.099e-04    2.279e-04  
    0.38000     1.121e-04    2.229e-04  
    0.39000     1.142e-04    2.178e-04  
    0.40000     1.163e-04    2.127e-04  
    0.41000     1.183e-04    2.074e-04  
    0.42000     1.203e-04    2.021e-04  
    0.43000     1.222e-04    1.967e-04  
    0.44000     1.240e-04    1.912e-04  
    0.45000     1.258e-04    1.857e-04  
    0.46000     1.276e-04    1.800e-04  
    0.47000     1.293e-04    1.743e-04  
    0.48000     1.309e-04    1.686e-04  
    0.49000     1.325e-04    1.628e-04  
    0.50000     1.340e-04    1.569e-04  
    0.51000     1.354e-04    1.510e-04  
    0.52000     1.368e-04    1.451e-04  
    0.53000     1.381e-04    1.392e-04  
    0.54000     1.394e-04    1.332e-04  
    0.55000     1.406e-04    1.273e-04  
    0.56000     1.418e-04    1.214e-04  
    0.57000     1.429e-04    1.155e-04  
    0.58000     1.439e-04    1.096e-04  
    0.59000     1.449e-04    1.039e-04  
    0.60000     1.458e-04    9.818e-05  
    0.61000     1.467e-04    9.261e-05  
    0.62000     1.475e-04    8.715e-05  
    0.63000     1.483e-04    8.183e-05  
    0.64000     1.490e-04    7.666e-05  
    0.65000     1.497e-04    7.167e-05  
    0.66000     1.503e-04    6.686e-05  
    0.67000     1.509e-04    6.225e-05  
    0.68000     1.514e-04    5.785e-05  
    0.69000     1.519e-04    5.367e-05  
    0.70000     1.524e-04    4.971e-05  
    0.71000     1.528e-04    4.599e-05  
    0.72000     1.532e-04    4.250e-05  
    0.73000     1.535e-04    3.925e-05  
    0.74000     1.539e-04    3.623e-05  
    0.75000     1.542e-04    3.344e-05  
    0.76000     1.545e-04    3.088e-05  
    0.77000     1.547e-04    2.853e-05  
    0.78000     1.550e-04    2.639e-05  
    0.79000     1.552e-04    2.444e-05  
    0.80000     1.554e-04    2.269e-05  
    0.81000     1.556e-04    2.110e-05  
    0.82000     1.558e-04    1.968e-05  
    0.83000     1.560e-04    1.841e-05  
    0.84000     1.561e-04    1.728e-05  
    0.85000     1.563e-04    1.628e-05  
    0.86000     1.564e-04    1.538e-05  
    0.87000     1.566e-04    1.460e-05  
    0.88000     1.567e-04    1.390e-05  
    0.89000     1.568e-04    1.329e-05  
    0.90000     1.570e-04    1.275e-05  
    0.91000     1.571e-04    1.228e-05  
    0.92000     1.572e-04    1.187e-05  
    0.93000     1.573e-04    1.151e-05  
    0.94000     1.574e-04    1.120e-05  
    0.95000     1.575e-04    1.092e-05  
    0.96000     1.576e-04    1.068e-05  
    0.97000     1.577e-04    1.047e-05  
    0.98000     1.578e-04    1.029e-05  
    0.99000     1.579e-04    1.013e-05  
    1.00000     1.580e-04    9.994e-06  
    1.01000     1.581e-04    9.873e-06  
    1.02000     1.582e-04    9.768e-06  
    1.03000     1.583e-04    9.677e-06  
    1.04000     1.584e-04    9.597e-06  
    1.05000     1.585e-04    9.527e-06  
    1.06000     1.586e-04    9.466e-06  
    1.07000     1.587e-04    9.413e-06  
    1.08000     1.588e-04    9.366e-06  
    1.09000     1.589e-04    9.325e-06  
    1.10000     1.590e-04    9.289e-06  
    1.11000     1.591e-04    9.258e-06  
    1.12000     1.592e-04    9.230e-06  
    1.13000     1.593e-04    9.205e-06  
    1.14000     1.593e-04    9.184e-06  
    1.15000     1.594e-04    9.164e-06  
    1.16000     1.595e-04    9.147e-06  
    1.17000     1.596e-04    9.132e-06  
    1.18000     1.597e-04    9.118e-06  
    1.19000     1.598e-04    9.106e-06  
    1.20000     1.599e-04    9.095e-06  
    1.21000     1.600e-04    9.085e-06  
    1.22000     1.601e-04    9.076e-06  
    1.23000     1.602e-04    9.068e-06  
    1.24000     1.603e-04    9.061e-06  
    1.25000     1.603e-04    9.054e-06  
    1.26000     1.604e-04    9.047e-06  
    1.27000     1.605e-04    9.041e-06  
    1.28000     1.606e-04    9.036e-06  
    1.29000     1.607e-04    9.031e-06  
    1.30000     1.608e-04    9.026e-06  
y
-----------------------------------------------

          ***** job concluded
1****** HSPICE -- G-2012.06 32-BIT (May 27 2012) RHEL32 ******                  
 ******  
 *sample netlist for bsim6.0

  ******  job statistics summary tnom=  25.000 temp=  27.000 *****
  
  
 ******  Machine Information  ******
 CPU:
 model name	: AMD Opteron(tm) Processor 248
 cpu MHz	: 2200.023
  
 OS:
 Linux version 2.6.9-22.EL (bhcompile@crowe.devel.redhat.com) (gcc version 3.4.4 20050721 (Red Hat 3.4.4-2)) #1 Mon Sep 19 17:49:49 EDT 2005


  ******  HSPICE Threads Information  ******

  Command Line Threads Count :     1
  Available CPU Count        :     1
  Actual Threads Count       :     1


  ******  Circuit Statistics  ******
  # nodes       =      14 # elements   =       5
  # resistors   =       0 # capacitors =       0 # inductors   =       0
  # mutual_inds =       0 # vccs       =       0 # vcvs        =       0
  # cccs        =       0 # ccvs       =       0 # volt_srcs   =       4
  # curr_srcs   =       0 # diodes     =       0 # bjts        =       0
  # jfets       =       0 # mosfets    =       0 # U elements  =       0
  # T elements  =       0 # W elements =       0 # B elements  =       0
  # S elements  =       0 # P elements =       0 # va device   =       1
  # vector_srcs =       0 # N elements =       0


  ******  Runtime Statistics (seconds)  ******

  analysis           time    # points   tot. iter  conv.iter
  op point           0.00           1           0
  dc sweep           0.08         393         792
  readin             2.63
  errchk             0.04
  setup              0.00
  output             0.00


           peak memory used        112.77 megabytes
           total cpu time            2.76 seconds
           total elapsed time       12.85 seconds
           job started at     21:46:08 05/05/2013
           job ended   at     21:46:20 05/05/2013


 lic: Release hspice token(s) 
 lic: total license checkout elapse time:        0.20(s)


pVA concluded on Sun May  5 21:46:20 2013

