Using: /cad/synopsys/Hspice/G-2012.06/hspice/linux/hspice idvg_nmos.sp
 ****** HSPICE -- G-2012.06 32-BIT (May 27 2012) RHEL32 ******                  
  Copyright (C) 2012 Synopsys, Inc. All Rights Reserved.                        
  Unpublished-rights reserved under US copyright laws.
  This program is protected by law and is subject to the
  terms and conditions of the license agreement from Synopsys.
  Use of this program is your acceptance to be bound by the
  license agreement. HSPICE is the trademark of Synopsys, Inc.
  Input File: idvg_nmos.sp                                                      
  Command line options: idvg_nmos.sp
 lic: No 'setenv LM_LICENSE_FILE' in current environment' 
 lic:  
 lic: FLEXlm: v10.8 
 lic: USER:   agarwalh             HOSTNAME: xcel1.vlsi.iitk.ac.in 
 lic: HOSTID: 0008a1953eea         PID:      908 
 lic: Using FLEXlm license file: 
 lic: 27000@xcel0 
 lic: Checkout 1 hspice 
 lic: License/Maintenance for hspice will expire on 15-jun-2013/2011.09 
 lic: 1(in_use)/5(total) FLOATING license(s) on SERVER xcel0 
 lic:   
 Init: read install configuration file: /cad/synopsys/Hspice/G-2012.06/hspice/meta.cfg


 --------------------------------------------------------
|                                                        |
|          Synopsys Unified Verilog-A (pVA v2.0)         |
|                                                        |
|           Machine Name: xcel1.vlsi.iitk.ac.in          |
| Copyright (c) 2011 Synopsys Inc., All Rights Reserved. |
|                                                        |
 --------------------------------------------------------

libepva built by pvamgr synmake_pva_build  on Tue May  1 20:03:16 PDT 2012
HSP_HOME:   /cad/synopsys/Hspice/G-2012.06/hspice
HSP_ARCH:   linux
HSP_GCC :   /cad/synopsys/Hspice/G-2012.06/hspice/GNU/amd64/gcc-4.5.2-static/bin/gcc -m32 
HSP_GCC_VER:   4.5.2
Working-Dir: /users/phd/agarwalh/synopsys_designs/BSIM6/QA/BSIM6 Release/Release_5_May
Args:        -p hsp -t spi -f idvg_nmos.pvadir/pvaHDL.lis -o idvg_nmos.pvadir 


Begin of pVA compiling on Sun May  5 21:45:45 2013

Parsing './bsim6.va'
Parsing include file '/cad/synopsys/Hspice/G-2012.06/hspice/include/constants.vams'
Parsing include file '/cad/synopsys/Hspice/G-2012.06/hspice/include/disciplines.vams'

End of pVA compiling on Sun May  5 21:45:45 2013


End of build pVA DB on Sun May  5 21:45:45 2013

*pvaI* Module (bsim6): 4 unexpanded port, 0 init, 2191 behav, 65 contrib, 43/2272 expr(s)
*pvaI* Resizing DB size for v count = 1
*pvaI*        Has DIS (SB), 3 afCount
*pvaI*        0 const-G and 0 const-C, Has switch branch.
*pvaI* Module (bsim6): generated 7 flow node(s) during compilation.

End of pVA genC on Sun May  5 21:45:47 2013

*pvaI* #### Total 316 line-size(s), 43 expr(s), 65 contr(s), 0 init(s), 2191 behav(s), 4 port(s)

Generating idvg_nmos.pvadir/pvaRTL_linux.so


End of submitting pVA idvg_nmos.pvadir/pvaRTL.mak on Sun May  5 21:45:57 2013


End of pVA elaboration on Sun May  5 21:45:57 2013

 Loading pVA library idvg_nmos.pvadir/pvaRTL_linux.so...
1****** HSPICE -- G-2012.06 32-BIT (May 27 2012) RHEL32 ******                  
 ******  
 *sample netlist for bsim6.0

  ******  circuit name directory
 circuit number to circuit name directory
   number circuitname                     definition         multiplier
        0 main circuit
        1 x1.                             bsim6(va)          1.00 
*pvaI* Creating Verilog-A module 'bsim6' for X1
  
      
 *****************************************************************
 ******  option summary
 ******
 runlvl  = 3         bypass  = 2         
  Opening plot unit= 15
 file=idvg_nmos.pa0                                                            

 ******  
 *sample netlist for bsim6.0

  ******  dc transfer curves tnom=  25.000 temp=  25.000 *****

   *** source        0:vb =   -0.3000        ***

x

        volt    param        param        param        current    
                    ids          gm           gm2          vd     
   -1.30000     1.314e-08      0.           0.        -1.314e-08  
   -1.29000     1.281e-08    1.314e-06      0.        -1.281e-08  
   -1.28000     1.248e-08   -3.338e-08    1.314e-04   -1.248e-08  
   -1.27000     1.216e-08   -3.268e-08   -1.347e-04   -1.216e-08  
   -1.26000     1.185e-08   -3.198e-08    7.047e-08   -1.185e-08  
   -1.25000     1.154e-08   -3.130e-08    6.931e-08   -1.154e-08  
   -1.24000     1.124e-08   -3.063e-08    6.817e-08   -1.124e-08  
   -1.23000     1.095e-08   -2.997e-08    6.704e-08   -1.095e-08  
   -1.22000     1.066e-08   -2.932e-08    6.593e-08   -1.066e-08  
   -1.21000     1.038e-08   -2.869e-08    6.482e-08   -1.038e-08  
   -1.20000     1.011e-08   -2.806e-08    6.373e-08   -1.011e-08  
   -1.19000     9.837e-09   -2.744e-08    6.265e-08   -9.837e-09  
   -1.18000     9.575e-09   -2.684e-08    6.158e-08   -9.575e-09  
   -1.17000     9.318e-09   -2.624e-08    6.053e-08   -9.318e-09  
   -1.16000     9.067e-09   -2.566e-08    5.949e-08   -9.067e-09  
   -1.15000     8.822e-09   -2.508e-08    5.846e-08   -8.822e-09  
   -1.14000     8.583e-09   -2.452e-08    5.744e-08   -8.583e-09  
   -1.13000     8.348e-09   -2.397e-08    5.643e-08   -8.348e-09  
   -1.12000     8.119e-09   -2.342e-08    5.544e-08   -8.119e-09  
   -1.11000     7.896e-09   -2.289e-08    5.445e-08   -7.896e-09  
   -1.10000     7.677e-09   -2.236e-08    5.348e-08   -7.677e-09  
   -1.09000     7.464e-09   -2.185e-08    5.252e-08   -7.464e-09  
   -1.08000     7.256e-09   -2.134e-08    5.158e-08   -7.256e-09  
   -1.07000     7.052e-09   -2.084e-08    5.064e-08   -7.052e-09  
   -1.06000     6.853e-09   -2.035e-08    4.972e-08   -6.853e-09  
   -1.05000     6.659e-09   -1.988e-08    4.880e-08   -6.659e-09  
   -1.04000     6.470e-09   -1.941e-08    4.790e-08   -6.470e-09  
   -1.03000     6.285e-09   -1.894e-08    4.701e-08   -6.285e-09  
   -1.02000     6.104e-09   -1.849e-08    4.614e-08   -6.104e-09  
   -1.01000     5.928e-09   -1.805e-08    4.527e-08   -5.928e-09  
   -1.00000     5.756e-09   -1.761e-08    4.441e-08   -5.756e-09  
   -0.99000     5.589e-09   -1.718e-08    4.357e-08   -5.589e-09  
   -0.98000     5.425e-09   -1.676e-08    4.274e-08   -5.425e-09  
   -0.97000     5.266e-09   -1.635e-08    4.191e-08   -5.266e-09  
   -0.96000     5.110e-09   -1.595e-08    4.110e-08   -5.110e-09  
   -0.95000     4.959e-09   -1.556e-08    4.030e-08   -4.959e-09  
   -0.94000     4.811e-09   -1.517e-08    3.951e-08   -4.811e-09  
   -0.93000     4.666e-09   -1.479e-08    3.874e-08   -4.666e-09  
   -0.92000     4.526e-09   -1.442e-08    3.797e-08   -4.526e-09  
   -0.91000     4.389e-09   -1.405e-08    3.721e-08   -4.389e-09  
   -0.90000     4.256e-09   -1.369e-08    3.647e-08   -4.256e-09  
   -0.89000     4.126e-09   -1.334e-08    3.573e-08   -4.126e-09  
   -0.88000     3.999e-09   -1.300e-08    3.501e-08   -3.999e-09  
   -0.87000     3.876e-09   -1.267e-08    3.429e-08   -3.876e-09  
   -0.86000     3.755e-09   -1.234e-08    3.359e-08   -3.755e-09  
   -0.85000     3.638e-09   -1.201e-08    3.289e-08   -3.638e-09  
   -0.84000     3.524e-09   -1.170e-08    3.221e-08   -3.524e-09  
   -0.83000     3.414e-09   -1.139e-08    3.154e-08   -3.414e-09  
   -0.82000     3.306e-09   -1.109e-08    3.087e-08   -3.306e-09  
   -0.81000     3.201e-09   -1.079e-08    3.022e-08   -3.201e-09  
   -0.80000     3.098e-09   -1.050e-08    2.957e-08   -3.098e-09  
   -0.79000     2.999e-09   -1.022e-08    2.894e-08   -2.999e-09  
   -0.78000     2.902e-09   -9.943e-09    2.832e-08   -2.902e-09  
   -0.77000     2.808e-09   -9.672e-09    2.770e-08   -2.808e-09  
   -0.76000     2.717e-09   -9.407e-09    2.710e-08   -2.717e-09  
   -0.75000     2.628e-09   -9.148e-09    2.650e-08   -2.628e-09  
   -0.74000     2.541e-09   -8.894e-09    2.592e-08   -2.541e-09  
   -0.73000     2.457e-09   -8.647e-09    2.534e-08   -2.457e-09  
   -0.72000     2.376e-09   -8.404e-09    2.477e-08   -2.376e-09  
   -0.71000     2.296e-09   -8.168e-09    2.422e-08   -2.296e-09  
   -0.70000     2.219e-09   -7.936e-09    2.367e-08   -2.219e-09  
   -0.69000     2.144e-09   -7.711e-09    2.313e-08   -2.144e-09  
   -0.68000     2.072e-09   -7.490e-09    2.260e-08   -2.072e-09  
   -0.67000     2.001e-09   -7.274e-09    2.208e-08   -2.001e-09  
   -0.66000     1.932e-09   -7.064e-09    2.156e-08   -1.932e-09  
   -0.65000     1.866e-09   -6.858e-09    2.106e-08   -1.866e-09  
   -0.64000     1.801e-09   -6.657e-09    2.056e-08   -1.801e-09  
   -0.63000     1.738e-09   -6.461e-09    2.008e-08   -1.738e-09  
   -0.62000     1.678e-09   -6.270e-09    1.960e-08   -1.678e-09  
   -0.61000     1.619e-09   -6.083e-09    1.913e-08   -1.619e-09  
   -0.60000     1.561e-09   -5.901e-09    1.867e-08   -1.561e-09  
   -0.59000     1.506e-09   -5.723e-09    1.821e-08   -1.506e-09  
   -0.58000     1.452e-09   -5.550e-09    1.777e-08   -1.452e-09  
   -0.57000     1.400e-09   -5.381e-09    1.733e-08   -1.400e-09  
   -0.56000     1.349e-09   -5.216e-09    1.690e-08   -1.349e-09  
   -0.55000     1.300e-09   -5.055e-09    1.648e-08   -1.300e-09  
   -0.54000     1.253e-09   -4.899e-09    1.607e-08   -1.253e-09  
   -0.53000     1.207e-09   -4.746e-09    1.566e-08   -1.207e-09  
   -0.52000     1.162e-09   -4.597e-09    1.527e-08   -1.162e-09  
   -0.51000     1.119e-09   -4.452e-09    1.488e-08   -1.119e-09  
   -0.50000     1.078e-09   -4.311e-09    1.449e-08   -1.078e-09  
   -0.49000     1.037e-09   -4.174e-09    1.412e-08   -1.037e-09  
   -0.48000     9.980e-10   -4.040e-09    1.375e-08   -9.980e-10  
   -0.47000     9.602e-10   -3.910e-09    1.339e-08   -9.602e-10  
   -0.46000     9.236e-10   -3.783e-09    1.304e-08   -9.236e-10  
   -0.45000     8.882e-10   -3.659e-09    1.269e-08   -8.882e-10  
   -0.44000     8.540e-10   -3.539e-09    1.235e-08   -8.540e-10  
   -0.43000     8.209e-10   -3.422e-09    1.202e-08   -8.209e-10  
   -0.42000     7.889e-10   -3.308e-09    1.169e-08   -7.889e-10  
   -0.41000     7.580e-10   -3.198e-09    1.137e-08   -7.580e-10  
   -0.40000     7.282e-10   -3.090e-09    1.106e-08   -7.282e-10  
   -0.39000     6.994e-10   -2.985e-09    1.076e-08   -6.994e-10  
   -0.38000     6.715e-10   -2.884e-09    1.046e-08   -6.715e-10  
   -0.37000     6.446e-10   -2.785e-09    1.017e-08   -6.446e-10  
   -0.36000     6.187e-10   -2.689e-09    9.886e-09   -6.187e-10  
   -0.35000     5.936e-10   -2.595e-09    9.609e-09   -5.936e-10  
   -0.34000     5.694e-10   -2.505e-09    9.340e-09   -5.694e-10  
   -0.33000     5.461e-10   -2.416e-09    9.079e-09   -5.461e-10  
   -0.32000     5.237e-10   -2.331e-09    8.827e-09   -5.237e-10  
   -0.31000     5.020e-10   -2.247e-09    8.585e-09   -5.020e-10  
   -0.30000     4.812e-10   -2.166e-09    8.353e-09   -4.812e-10  
   -0.29000     4.611e-10   -2.086e-09    8.135e-09   -4.611e-10  
   -0.28000     4.417e-10   -2.009e-09    7.931e-09   -4.417e-10  
   -0.27000     4.232e-10   -1.933e-09    7.747e-09   -4.232e-10  
   -0.26000     4.053e-10   -1.858e-09    7.586e-09   -4.053e-10  
   -0.25000     3.882e-10   -1.785e-09    7.455e-09   -3.882e-10  
   -0.24000     3.718e-10   -1.712e-09    7.364e-09   -3.718e-10  
   -0.23000     3.562e-10   -1.638e-09    7.324e-09   -3.562e-10  
   -0.22000     3.413e-10   -1.563e-09    7.354e-09   -3.413e-10  
   -0.21000     3.273e-10   -1.486e-09    7.477e-09   -3.273e-10  
   -0.20000     3.141e-10   -1.405e-09    7.725e-09   -3.141e-10  
   -0.19000     3.019e-10   -1.317e-09    8.144e-09   -3.019e-10  
   -0.18000     2.908e-10   -1.219e-09    8.794e-09   -2.908e-10  
   -0.17000     2.811e-10   -1.107e-09    9.760e-09   -2.811e-10  
   -0.16000     2.729e-10   -9.760e-10    1.116e-08   -2.729e-10  
   -0.15000     2.667e-10   -8.166e-10    1.315e-08   -2.667e-10  
   -0.14000     2.631e-10   -6.181e-10    1.594e-08   -2.631e-10  
   -0.13000     2.627e-10   -3.654e-10    1.985e-08   -2.627e-10  
   -0.12000     2.666e-10   -3.759e-11    2.527e-08   -2.666e-10  
   -0.11000     2.763e-10    3.940e-10    3.278e-08   -2.763e-10  
   -0.10000     2.937e-10    9.685e-10    4.315e-08   -2.937e-10  
 -9.0000e-02    3.216e-10    1.740e-09    5.746e-08   -3.216e-10  
 -8.0000e-02    3.635e-10    2.783e-09    7.715e-08   -3.635e-10  
 -7.0000e-02    4.248e-10    4.198e-09    1.043e-07   -4.248e-10  
 -6.0000e-02    5.124e-10    6.126e-09    1.416e-07   -5.124e-10  
 -5.0000e-02    6.360e-10    8.759e-09    1.928e-07   -6.360e-10  
 -4.0000e-02    8.089e-10    1.236e-08    2.633e-07   -8.089e-10  
 -3.0000e-02    1.049e-09    1.729e-08    3.601e-07   -1.049e-09  
 -2.0000e-02    1.383e-09    2.405e-08    4.931e-07   -1.383e-09  
 -1.0000e-02    1.843e-09    3.331e-08    6.757e-07   -1.843e-09  
    0.          2.477e-09    4.602e-08    9.264e-07   -2.477e-09  
  1.0000e-02    3.350e-09    6.343e-08    1.270e-06   -3.350e-09  
  2.0000e-02    4.550e-09    8.730e-08    1.742e-06   -4.550e-09  
  3.0000e-02    6.196e-09    1.200e-07    2.387e-06   -6.196e-09  
  4.0000e-02    8.453e-09    1.647e-07    3.268e-06   -8.453e-09  
  5.0000e-02    1.154e-08    2.257e-07    4.469e-06   -1.154e-08  
  6.0000e-02    1.576e-08    3.088e-07    6.102e-06   -1.576e-08  
  7.0000e-02    2.149e-08    4.215e-07    8.309e-06   -2.149e-08  
  8.0000e-02    2.928e-08    5.739e-07    1.128e-05   -2.928e-08  
  9.0000e-02    3.978e-08    7.783e-07    1.523e-05   -3.978e-08  
    0.10000     5.387e-08    1.050e-06    2.044e-05   -5.387e-08  
    0.11000     7.261e-08    1.409e-06    2.721e-05   -7.261e-08  
    0.12000     9.730e-08    1.874e-06    3.583e-05   -9.730e-08  
    0.13000     1.294e-07    2.469e-06    4.654e-05   -1.294e-07  
    0.14000     1.706e-07    3.212e-06    5.943e-05   -1.706e-07  
    0.15000     2.226e-07    4.120e-06    7.435e-05   -2.226e-07  
    0.16000     2.871e-07    5.200e-06    9.082e-05   -2.871e-07  
    0.17000     3.655e-07    6.446e-06    1.080e-04   -3.655e-07  
    0.18000     4.590e-07    7.841e-06    1.246e-04   -4.590e-07  
    0.19000     5.684e-07    9.352e-06    1.394e-04   -5.684e-07  
    0.20000     6.939e-07    1.094e-05    1.511e-04   -6.939e-07  
    0.21000     8.355e-07    1.255e-05    1.586e-04   -8.355e-07  
    0.22000     9.924e-07    1.415e-05    1.616e-04   -9.924e-07  
    0.23000     1.164e-06    1.570e-05    1.600e-04   -1.164e-06  
    0.24000     1.349e-06    1.716e-05    1.544e-04   -1.349e-06  
    0.25000     1.546e-06    1.851e-05    1.458e-04   -1.546e-06  
    0.26000     1.755e-06    1.974e-05    1.350e-04   -1.755e-06  
    0.27000     1.973e-06    2.084e-05    1.231e-04   -1.973e-06  
    0.28000     2.200e-06    2.183e-05    1.106e-04   -2.200e-06  
    0.29000     2.434e-06    2.269e-05    9.829e-05   -2.434e-06  
    0.30000     2.675e-06    2.344e-05    8.645e-05   -2.675e-06  
    0.31000     2.922e-06    2.410e-05    7.535e-05   -2.922e-06  
    0.32000     3.173e-06    2.465e-05    6.511e-05   -3.173e-06  
    0.33000     3.428e-06    2.513e-05    5.578e-05   -3.428e-06  
    0.34000     3.687e-06    2.552e-05    4.733e-05   -3.687e-06  
    0.35000     3.948e-06    2.585e-05    3.970e-05   -3.948e-06  
    0.36000     4.211e-06    2.612e-05    3.283e-05   -4.211e-06  
    0.37000     4.476e-06    2.633e-05    2.664e-05   -4.476e-06  
    0.38000     4.742e-06    2.649e-05    2.105e-05   -4.742e-06  
    0.39000     5.009e-06    2.660e-05    1.601e-05   -5.009e-06  
    0.40000     5.276e-06    2.668e-05    1.145e-05   -5.276e-06  
    0.41000     5.543e-06    2.671e-05    7.320e-06   -5.543e-06  
    0.42000     5.810e-06    2.671e-05    3.573e-06   -5.810e-06  
    0.43000     6.077e-06    2.668e-05    1.675e-07   -6.077e-06  
    0.44000     6.342e-06    2.663e-05   -2.933e-06   -6.342e-06  
    0.45000     6.606e-06    2.654e-05   -5.759e-06   -6.606e-06  
    0.46000     6.869e-06    2.644e-05   -8.340e-06   -6.869e-06  
    0.47000     7.131e-06    2.631e-05   -1.070e-05   -7.131e-06  
    0.48000     7.391e-06    2.616e-05   -1.286e-05   -7.391e-06  
    0.49000     7.649e-06    2.599e-05   -1.483e-05   -7.649e-06  
    0.50000     7.905e-06    2.581e-05   -1.664e-05   -7.905e-06  
    0.51000     8.159e-06    2.561e-05   -1.830e-05   -8.159e-06  
    0.52000     8.411e-06    2.540e-05   -1.982e-05   -8.411e-06  
    0.53000     8.660e-06    2.518e-05   -2.121e-05   -8.660e-06  
    0.54000     8.907e-06    2.494e-05   -2.249e-05   -8.907e-06  
    0.55000     9.152e-06    2.469e-05   -2.365e-05   -9.152e-06  
    0.56000     9.393e-06    2.443e-05   -2.472e-05   -9.393e-06  
    0.57000     9.632e-06    2.417e-05   -2.570e-05   -9.632e-06  
    0.58000     9.868e-06    2.389e-05   -2.658e-05   -9.868e-06  
    0.59000     1.010e-05    2.361e-05   -2.739e-05   -1.010e-05  
    0.60000     1.033e-05    2.333e-05   -2.812e-05   -1.033e-05  
    0.61000     1.056e-05    2.303e-05   -2.879e-05   -1.056e-05  
    0.62000     1.078e-05    2.273e-05   -2.938e-05   -1.078e-05  
    0.63000     1.100e-05    2.243e-05   -2.992e-05   -1.100e-05  
    0.64000     1.122e-05    2.212e-05   -3.039e-05   -1.122e-05  
    0.65000     1.144e-05    2.181e-05   -3.082e-05   -1.144e-05  
    0.66000     1.165e-05    2.149e-05   -3.119e-05   -1.165e-05  
    0.67000     1.186e-05    2.118e-05   -3.151e-05   -1.186e-05  
    0.68000     1.206e-05    2.086e-05   -3.179e-05   -1.206e-05  
    0.69000     1.227e-05    2.053e-05   -3.202e-05   -1.227e-05  
    0.70000     1.246e-05    2.021e-05   -3.222e-05   -1.246e-05  
    0.71000     1.266e-05    1.988e-05   -3.238e-05   -1.266e-05  
    0.72000     1.285e-05    1.956e-05   -3.250e-05   -1.285e-05  
    0.73000     1.304e-05    1.923e-05   -3.259e-05   -1.304e-05  
    0.74000     1.323e-05    1.891e-05   -3.264e-05   -1.323e-05  
    0.75000     1.341e-05    1.858e-05   -3.267e-05   -1.341e-05  
    0.76000     1.359e-05    1.825e-05   -3.266e-05   -1.359e-05  
    0.77000     1.376e-05    1.793e-05   -3.264e-05   -1.376e-05  
    0.78000     1.394e-05    1.760e-05   -3.258e-05   -1.394e-05  
    0.79000     1.411e-05    1.728e-05   -3.250e-05   -1.411e-05  
    0.80000     1.427e-05    1.695e-05   -3.240e-05   -1.427e-05  
    0.81000     1.444e-05    1.663e-05   -3.228e-05   -1.444e-05  
    0.82000     1.460e-05    1.631e-05   -3.214e-05   -1.460e-05  
    0.83000     1.475e-05    1.600e-05   -3.198e-05   -1.475e-05  
    0.84000     1.491e-05    1.568e-05   -3.181e-05   -1.491e-05  
    0.85000     1.506e-05    1.537e-05   -3.162e-05   -1.506e-05  
    0.86000     1.520e-05    1.505e-05   -3.141e-05   -1.520e-05  
    0.87000     1.535e-05    1.474e-05   -3.119e-05   -1.535e-05  
    0.88000     1.549e-05    1.444e-05   -3.095e-05   -1.549e-05  
    0.89000     1.563e-05    1.413e-05   -3.071e-05   -1.563e-05  
    0.90000     1.576e-05    1.383e-05   -3.045e-05   -1.576e-05  
    0.91000     1.590e-05    1.353e-05   -3.018e-05   -1.590e-05  
    0.92000     1.603e-05    1.324e-05   -2.990e-05   -1.603e-05  
    0.93000     1.615e-05    1.294e-05   -2.961e-05   -1.615e-05  
    0.94000     1.628e-05    1.265e-05   -2.932e-05   -1.628e-05  
    0.95000     1.640e-05    1.236e-05   -2.902e-05   -1.640e-05  
    0.96000     1.652e-05    1.208e-05   -2.871e-05   -1.652e-05  
    0.97000     1.663e-05    1.180e-05   -2.839e-05   -1.663e-05  
    0.98000     1.674e-05    1.152e-05   -2.807e-05   -1.674e-05  
    0.99000     1.685e-05    1.125e-05   -2.774e-05   -1.685e-05  
    1.00000     1.696e-05    1.098e-05   -2.741e-05   -1.696e-05  
    1.01000     1.706e-05    1.071e-05   -2.707e-05   -1.706e-05  
    1.02000     1.717e-05    1.045e-05   -2.674e-05   -1.717e-05  
    1.03000     1.727e-05    1.019e-05   -2.639e-05   -1.727e-05  
    1.04000     1.736e-05    9.929e-06   -2.605e-05   -1.736e-05  
    1.05000     1.746e-05    9.676e-06   -2.570e-05   -1.746e-05  
    1.06000     1.755e-05    9.426e-06   -2.535e-05   -1.755e-05  
    1.07000     1.764e-05    9.179e-06   -2.501e-05   -1.764e-05  
    1.08000     1.772e-05    8.936e-06   -2.465e-05   -1.772e-05  
    1.09000     1.781e-05    8.696e-06   -2.430e-05   -1.781e-05  
    1.10000     1.789e-05    8.460e-06   -2.395e-05   -1.789e-05  
    1.11000     1.797e-05    8.228e-06   -2.360e-05   -1.797e-05  
    1.12000     1.805e-05    7.999e-06   -2.325e-05   -1.805e-05  
    1.13000     1.812e-05    7.774e-06   -2.290e-05   -1.812e-05  
    1.14000     1.820e-05    7.552e-06   -2.255e-05   -1.820e-05  
    1.15000     1.827e-05    7.333e-06   -2.220e-05   -1.827e-05  
    1.16000     1.834e-05    7.118e-06   -2.185e-05   -1.834e-05  
    1.17000     1.841e-05    6.906e-06   -2.150e-05   -1.841e-05  
    1.18000     1.847e-05    6.698e-06   -2.116e-05   -1.847e-05  
    1.19000     1.853e-05    6.493e-06   -2.082e-05   -1.853e-05  
    1.20000     1.859e-05    6.292e-06   -2.048e-05   -1.859e-05  
    1.21000     1.865e-05    6.094e-06   -2.014e-05   -1.865e-05  
    1.22000     1.871e-05    5.899e-06   -1.980e-05   -1.871e-05  
    1.23000     1.877e-05    5.708e-06   -1.947e-05   -1.877e-05  
    1.24000     1.882e-05    5.520e-06   -1.914e-05   -1.882e-05  
    1.25000     1.887e-05    5.335e-06   -1.881e-05   -1.887e-05  
    1.26000     1.892e-05    5.154e-06   -1.848e-05   -1.892e-05  
    1.27000     1.897e-05    4.975e-06   -1.816e-05   -1.897e-05  
    1.28000     1.901e-05    4.800e-06   -1.784e-05   -1.901e-05  
    1.29000     1.906e-05    4.628e-06   -1.753e-05   -1.906e-05  
    1.30000     1.910e-05    4.459e-06   -1.721e-05   -1.910e-05  
y
-----------------------------------------------
 ******  
 *sample netlist for bsim6.0

  ******  dc transfer curves tnom=  25.000 temp=  25.000 *****

   *** source        0:vb =   -0.2000        ***

x

        volt    param        param        param        current    
                    ids          gm           gm2          vd     
   -1.30000     1.314e-08   -1.469e-05   -3.430e-06   -1.314e-08  
   -1.29000     1.281e-08   -1.909e-03   -1.915e-03   -1.281e-08  
   -1.28000     1.248e-08   -3.338e-08     -0.1894    -1.248e-08  
   -1.27000     1.216e-08   -3.267e-08      0.1909    -1.216e-08  
   -1.26000     1.185e-08   -3.198e-08    7.046e-08   -1.185e-08  
   -1.25000     1.154e-08   -3.130e-08    6.931e-08   -1.154e-08  
   -1.24000     1.124e-08   -3.063e-08    6.817e-08   -1.124e-08  
   -1.23000     1.095e-08   -2.997e-08    6.704e-08   -1.095e-08  
   -1.22000     1.066e-08   -2.932e-08    6.592e-08   -1.066e-08  
   -1.21000     1.038e-08   -2.869e-08    6.482e-08   -1.038e-08  
   -1.20000     1.011e-08   -2.806e-08    6.373e-08   -1.011e-08  
   -1.19000     9.837e-09   -2.744e-08    6.265e-08   -9.837e-09  
   -1.18000     9.574e-09   -2.684e-08    6.158e-08   -9.574e-09  
   -1.17000     9.318e-09   -2.624e-08    6.053e-08   -9.318e-09  
   -1.16000     9.067e-09   -2.566e-08    5.948e-08   -9.067e-09  
   -1.15000     8.822e-09   -2.508e-08    5.845e-08   -8.822e-09  
   -1.14000     8.582e-09   -2.452e-08    5.744e-08   -8.582e-09  
   -1.13000     8.348e-09   -2.397e-08    5.643e-08   -8.348e-09  
   -1.12000     8.119e-09   -2.342e-08    5.543e-08   -8.119e-09  
   -1.11000     7.895e-09   -2.289e-08    5.445e-08   -7.895e-09  
   -1.10000     7.677e-09   -2.236e-08    5.348e-08   -7.677e-09  
   -1.09000     7.464e-09   -2.184e-08    5.252e-08   -7.464e-09  
   -1.08000     7.255e-09   -2.134e-08    5.157e-08   -7.255e-09  
   -1.07000     7.052e-09   -2.084e-08    5.064e-08   -7.052e-09  
   -1.06000     6.853e-09   -2.035e-08    4.971e-08   -6.853e-09  
   -1.05000     6.659e-09   -1.987e-08    4.880e-08   -6.659e-09  
   -1.04000     6.469e-09   -1.940e-08    4.790e-08   -6.469e-09  
   -1.03000     6.285e-09   -1.894e-08    4.701e-08   -6.285e-09  
   -1.02000     6.104e-09   -1.849e-08    4.613e-08   -6.104e-09  
   -1.01000     5.928e-09   -1.805e-08    4.527e-08   -5.928e-09  
   -1.00000     5.756e-09   -1.761e-08    4.441e-08   -5.756e-09  
   -0.99000     5.589e-09   -1.718e-08    4.357e-08   -5.589e-09  
   -0.98000     5.425e-09   -1.676e-08    4.273e-08   -5.425e-09  
   -0.97000     5.265e-09   -1.635e-08    4.191e-08   -5.265e-09  
   -0.96000     5.110e-09   -1.595e-08    4.110e-08   -5.110e-09  
   -0.95000     4.958e-09   -1.555e-08    4.030e-08   -4.958e-09  
   -0.94000     4.810e-09   -1.517e-08    3.951e-08   -4.810e-09  
   -0.93000     4.666e-09   -1.479e-08    3.873e-08   -4.666e-09  
   -0.92000     4.526e-09   -1.442e-08    3.797e-08   -4.526e-09  
   -0.91000     4.389e-09   -1.405e-08    3.721e-08   -4.389e-09  
   -0.90000     4.255e-09   -1.369e-08    3.646e-08   -4.255e-09  
   -0.89000     4.125e-09   -1.334e-08    3.573e-08   -4.125e-09  
   -0.88000     3.999e-09   -1.300e-08    3.500e-08   -3.999e-09  
   -0.87000     3.875e-09   -1.266e-08    3.429e-08   -3.875e-09  
   -0.86000     3.755e-09   -1.234e-08    3.358e-08   -3.755e-09  
   -0.85000     3.638e-09   -1.201e-08    3.289e-08   -3.638e-09  
   -0.84000     3.524e-09   -1.170e-08    3.221e-08   -3.524e-09  
   -0.83000     3.413e-09   -1.139e-08    3.153e-08   -3.413e-09  
   -0.82000     3.306e-09   -1.109e-08    3.087e-08   -3.306e-09  
   -0.81000     3.201e-09   -1.079e-08    3.022e-08   -3.201e-09  
   -0.80000     3.098e-09   -1.050e-08    2.957e-08   -3.098e-09  
   -0.79000     2.999e-09   -1.022e-08    2.894e-08   -2.999e-09  
   -0.78000     2.902e-09   -9.942e-09    2.832e-08   -2.902e-09  
   -0.77000     2.808e-09   -9.671e-09    2.770e-08   -2.808e-09  
   -0.76000     2.717e-09   -9.406e-09    2.710e-08   -2.717e-09  
   -0.75000     2.628e-09   -9.147e-09    2.650e-08   -2.628e-09  
   -0.74000     2.541e-09   -8.894e-09    2.592e-08   -2.541e-09  
   -0.73000     2.457e-09   -8.646e-09    2.534e-08   -2.457e-09  
   -0.72000     2.376e-09   -8.404e-09    2.477e-08   -2.376e-09  
   -0.71000     2.296e-09   -8.167e-09    2.421e-08   -2.296e-09  
   -0.70000     2.219e-09   -7.936e-09    2.367e-08   -2.219e-09  
   -0.69000     2.144e-09   -7.710e-09    2.313e-08   -2.144e-09  
   -0.68000     2.071e-09   -7.489e-09    2.260e-08   -2.071e-09  
   -0.67000     2.001e-09   -7.274e-09    2.207e-08   -2.001e-09  
   -0.66000     1.932e-09   -7.063e-09    2.156e-08   -1.932e-09  
   -0.65000     1.866e-09   -6.858e-09    2.106e-08   -1.866e-09  
   -0.64000     1.801e-09   -6.657e-09    2.056e-08   -1.801e-09  
   -0.63000     1.738e-09   -6.461e-09    2.008e-08   -1.738e-09  
   -0.62000     1.678e-09   -6.270e-09    1.960e-08   -1.678e-09  
   -0.61000     1.619e-09   -6.083e-09    1.913e-08   -1.619e-09  
   -0.60000     1.561e-09   -5.901e-09    1.867e-08   -1.561e-09  
   -0.59000     1.506e-09   -5.723e-09    1.821e-08   -1.506e-09  
   -0.58000     1.452e-09   -5.550e-09    1.777e-08   -1.452e-09  
   -0.57000     1.400e-09   -5.381e-09    1.733e-08   -1.400e-09  
   -0.56000     1.349e-09   -5.216e-09    1.690e-08   -1.349e-09  
   -0.55000     1.300e-09   -5.055e-09    1.648e-08   -1.300e-09  
   -0.54000     1.253e-09   -4.899e-09    1.607e-08   -1.253e-09  
   -0.53000     1.207e-09   -4.746e-09    1.566e-08   -1.207e-09  
   -0.52000     1.162e-09   -4.597e-09    1.527e-08   -1.162e-09  
   -0.51000     1.119e-09   -4.452e-09    1.488e-08   -1.119e-09  
   -0.50000     1.077e-09   -4.311e-09    1.449e-08   -1.077e-09  
   -0.49000     1.037e-09   -4.174e-09    1.412e-08   -1.037e-09  
   -0.48000     9.980e-10   -4.040e-09    1.375e-08   -9.980e-10  
   -0.47000     9.602e-10   -3.909e-09    1.339e-08   -9.602e-10  
   -0.46000     9.236e-10   -3.782e-09    1.304e-08   -9.236e-10  
   -0.45000     8.882e-10   -3.659e-09    1.269e-08   -8.882e-10  
   -0.44000     8.540e-10   -3.539e-09    1.235e-08   -8.540e-10  
   -0.43000     8.209e-10   -3.422e-09    1.202e-08   -8.209e-10  
   -0.42000     7.889e-10   -3.308e-09    1.169e-08   -7.889e-10  
   -0.41000     7.580e-10   -3.197e-09    1.138e-08   -7.580e-10  
   -0.40000     7.282e-10   -3.090e-09    1.106e-08   -7.282e-10  
   -0.39000     6.993e-10   -2.985e-09    1.076e-08   -6.993e-10  
   -0.38000     6.715e-10   -2.883e-09    1.046e-08   -6.715e-10  
   -0.37000     6.446e-10   -2.785e-09    1.017e-08   -6.446e-10  
   -0.36000     6.186e-10   -2.688e-09    9.890e-09   -6.186e-10  
   -0.35000     5.936e-10   -2.595e-09    9.616e-09   -5.936e-10  
   -0.34000     5.694e-10   -2.504e-09    9.349e-09   -5.694e-10  
   -0.33000     5.462e-10   -2.416e-09    9.092e-09   -5.462e-10  
   -0.32000     5.237e-10   -2.330e-09    8.844e-09   -5.237e-10  
   -0.31000     5.021e-10   -2.246e-09    8.608e-09   -5.021e-10  
   -0.30000     4.812e-10   -2.164e-09    8.385e-09   -4.812e-10  
   -0.29000     4.612e-10   -2.084e-09    8.178e-09   -4.612e-10  
   -0.28000     4.419e-10   -2.006e-09    7.990e-09   -4.419e-10  
   -0.27000     4.233e-10   -1.929e-09    7.826e-09   -4.233e-10  
   -0.26000     4.056e-10   -1.853e-09    7.694e-09   -4.056e-10  
   -0.25000     3.886e-10   -1.777e-09    7.602e-09   -3.886e-10  
   -0.24000     3.723e-10   -1.701e-09    7.563e-09   -3.723e-10  
   -0.23000     3.569e-10   -1.624e-09    7.596e-09   -3.569e-10  
   -0.22000     3.423e-10   -1.544e-09    7.724e-09   -3.423e-10  
   -0.21000     3.286e-10   -1.460e-09    7.979e-09   -3.286e-10  
   -0.20000     3.159e-10   -1.369e-09    8.409e-09   -3.159e-10  
   -0.19000     3.044e-10   -1.269e-09    9.074e-09   -3.044e-10  
   -0.18000     2.942e-10   -1.154e-09    1.006e-08   -2.942e-10  
   -0.17000     2.856e-10   -1.019e-09    1.148e-08   -2.856e-10  
   -0.16000     2.791e-10   -8.554e-10    1.351e-08   -2.791e-10  
   -0.15000     2.751e-10   -6.524e-10    1.634e-08   -2.751e-10  
   -0.14000     2.745e-10   -3.946e-10    2.030e-08   -2.745e-10  
   -0.13000     2.783e-10   -6.093e-11    2.578e-08   -2.783e-10  
   -0.12000     2.879e-10    3.772e-10    3.336e-08   -2.879e-10  
   -0.11000     3.053e-10    9.591e-10    4.381e-08   -3.053e-10  
   -0.10000     3.332e-10    1.739e-09    5.820e-08   -3.332e-10  
 -9.0000e-02    3.753e-10    2.790e-09    7.797e-08   -3.753e-10  
 -8.0000e-02    4.368e-10    4.214e-09    1.051e-07   -4.368e-10  
 -7.0000e-02    5.247e-10    6.151e-09    1.424e-07   -5.247e-10  
 -6.0000e-02    6.486e-10    8.789e-09    1.936e-07   -6.486e-10  
 -5.0000e-02    8.218e-10    1.239e-08    2.639e-07   -8.218e-10  
 -4.0000e-02    1.062e-09    1.731e-08    3.602e-07   -1.062e-09  
 -3.0000e-02    1.395e-09    2.405e-08    4.923e-07   -1.395e-09  
 -2.0000e-02    1.854e-09    3.326e-08    6.734e-07   -1.854e-09  
 -1.0000e-02    2.485e-09    4.588e-08    9.216e-07   -2.485e-09  
    0.          3.353e-09    6.315e-08    1.262e-06   -3.353e-09  
  1.0000e-02    4.543e-09    8.677e-08    1.727e-06   -4.543e-09  
  2.0000e-02    6.175e-09    1.191e-07    2.362e-06   -6.175e-09  
  3.0000e-02    8.408e-09    1.632e-07    3.229e-06   -8.408e-09  
  4.0000e-02    1.146e-08    2.233e-07    4.410e-06   -1.146e-08  
  5.0000e-02    1.562e-08    3.050e-07    6.011e-06   -1.562e-08  
  6.0000e-02    2.127e-08    4.158e-07    8.174e-06   -2.127e-08  
  7.0000e-02    2.892e-08    5.652e-07    1.108e-05   -2.892e-08  
  8.0000e-02    3.925e-08    7.656e-07    1.494e-05   -3.925e-08  
  9.0000e-02    5.307e-08    1.032e-06    2.004e-05   -5.307e-08  
    0.10000     7.146e-08    1.383e-06    2.665e-05   -7.146e-08  
    0.11000     9.565e-08    1.838e-06    3.507e-05   -9.565e-08  
    0.12000     1.271e-07    2.420e-06    4.554e-05   -1.271e-07  
    0.13000     1.675e-07    3.148e-06    5.816e-05   -1.675e-07  
    0.14000     2.185e-07    4.038e-06    7.281e-05   -2.185e-07  
    0.15000     2.818e-07    5.099e-06    8.903e-05   -2.818e-07  
    0.16000     3.588e-07    6.325e-06    1.060e-04   -3.588e-07  
    0.17000     4.507e-07    7.701e-06    1.226e-04   -4.507e-07  
    0.18000     5.584e-07    9.196e-06    1.376e-04   -5.584e-07  
    0.19000     6.822e-07    1.077e-05    1.495e-04   -6.822e-07  
    0.20000     8.220e-07    1.238e-05    1.575e-04   -8.220e-07  
    0.21000     9.773e-07    1.398e-05    1.609e-04   -9.773e-07  
    0.22000     1.147e-06    1.553e-05    1.599e-04   -1.147e-06  
    0.23000     1.331e-06    1.700e-05    1.549e-04   -1.331e-06  
    0.24000     1.527e-06    1.836e-05    1.468e-04   -1.527e-06  
    0.25000     1.734e-06    1.961e-05    1.364e-04   -1.734e-06  
    0.26000     1.952e-06    2.073e-05    1.248e-04   -1.952e-06  
    0.27000     2.178e-06    2.174e-05    1.126e-04   -2.178e-06  
    0.28000     2.412e-06    2.262e-05    1.004e-04   -2.412e-06  
    0.29000     2.653e-06    2.340e-05    8.861e-05   -2.653e-06  
    0.30000     2.899e-06    2.407e-05    7.751e-05   -2.899e-06  
    0.31000     3.151e-06    2.465e-05    6.724e-05   -3.151e-06  
    0.32000     3.406e-06    2.514e-05    5.785e-05   -3.406e-06  
    0.33000     3.665e-06    2.556e-05    4.933e-05   -3.665e-06  
    0.34000     3.927e-06    2.591e-05    4.162e-05   -3.927e-06  
    0.35000     4.191e-06    2.619e-05    3.467e-05   -4.191e-06  
    0.36000     4.457e-06    2.642e-05    2.839e-05   -4.457e-06  
    0.37000     4.725e-06    2.659e-05    2.271e-05   -4.725e-06  
    0.38000     4.993e-06    2.672e-05    1.758e-05   -4.993e-06  
    0.39000     5.261e-06    2.681e-05    1.294e-05   -5.261e-06  
    0.40000     5.530e-06    2.686e-05    8.727e-06   -5.530e-06  
    0.41000     5.799e-06    2.687e-05    4.899e-06   -5.799e-06  
    0.42000     6.067e-06    2.686e-05    1.415e-06   -6.067e-06  
    0.43000     6.334e-06    2.681e-05   -1.761e-06   -6.334e-06  
    0.44000     6.600e-06    2.674e-05   -4.661e-06   -6.600e-06  
    0.45000     6.866e-06    2.664e-05   -7.313e-06   -6.866e-06  
    0.46000     7.129e-06    2.652e-05   -9.740e-06   -7.129e-06  
    0.47000     7.392e-06    2.638e-05   -1.196e-05   -7.392e-06  
    0.48000     7.652e-06    2.622e-05   -1.400e-05   -7.652e-06  
    0.49000     7.911e-06    2.604e-05   -1.588e-05   -7.911e-06  
    0.50000     8.167e-06    2.585e-05   -1.759e-05   -8.167e-06  
    0.51000     8.421e-06    2.565e-05   -1.917e-05   -8.421e-06  
    0.52000     8.673e-06    2.543e-05   -2.062e-05   -8.673e-06  
    0.53000     8.923e-06    2.520e-05   -2.195e-05   -8.923e-06  
    0.54000     9.170e-06    2.495e-05   -2.317e-05   -9.170e-06  
    0.55000     9.414e-06    2.470e-05   -2.429e-05   -9.414e-06  
    0.56000     9.656e-06    2.444e-05   -2.531e-05   -9.656e-06  
    0.57000     9.895e-06    2.417e-05   -2.624e-05   -9.895e-06  
    0.58000     1.013e-05    2.389e-05   -2.709e-05   -1.013e-05  
    0.59000     1.036e-05    2.360e-05   -2.787e-05   -1.036e-05  
    0.60000     1.059e-05    2.331e-05   -2.857e-05   -1.059e-05  
    0.61000     1.082e-05    2.301e-05   -2.921e-05   -1.082e-05  
    0.62000     1.104e-05    2.271e-05   -2.978e-05   -1.104e-05  
    0.63000     1.127e-05    2.240e-05   -3.029e-05   -1.127e-05  
    0.64000     1.148e-05    2.209e-05   -3.075e-05   -1.148e-05  
    0.65000     1.170e-05    2.177e-05   -3.115e-05   -1.170e-05  
    0.66000     1.191e-05    2.146e-05   -3.151e-05   -1.191e-05  
    0.67000     1.212e-05    2.114e-05   -3.182e-05   -1.212e-05  
    0.68000     1.232e-05    2.081e-05   -3.208e-05   -1.232e-05  
    0.69000     1.252e-05    2.049e-05   -3.230e-05   -1.252e-05  
    0.70000     1.272e-05    2.016e-05   -3.248e-05   -1.272e-05  
    0.71000     1.292e-05    1.983e-05   -3.263e-05   -1.292e-05  
    0.72000     1.311e-05    1.951e-05   -3.274e-05   -1.311e-05  
    0.73000     1.330e-05    1.918e-05   -3.282e-05   -1.330e-05  
    0.74000     1.348e-05    1.885e-05   -3.287e-05   -1.348e-05  
    0.75000     1.366e-05    1.852e-05   -3.288e-05   -1.366e-05  
    0.76000     1.384e-05    1.819e-05   -3.287e-05   -1.384e-05  
    0.77000     1.402e-05    1.786e-05   -3.284e-05   -1.402e-05  
    0.78000     1.419e-05    1.754e-05   -3.278e-05   -1.419e-05  
    0.79000     1.436e-05    1.721e-05   -3.269e-05   -1.436e-05  
    0.80000     1.453e-05    1.689e-05   -3.258e-05   -1.453e-05  
    0.81000     1.469e-05    1.656e-05   -3.246e-05   -1.469e-05  
    0.82000     1.485e-05    1.624e-05   -3.231e-05   -1.485e-05  
    0.83000     1.500e-05    1.592e-05   -3.215e-05   -1.500e-05  
    0.84000     1.516e-05    1.560e-05   -3.196e-05   -1.516e-05  
    0.85000     1.531e-05    1.529e-05   -3.177e-05   -1.531e-05  
    0.86000     1.545e-05    1.498e-05   -3.155e-05   -1.545e-05  
    0.87000     1.560e-05    1.466e-05   -3.133e-05   -1.560e-05  
    0.88000     1.574e-05    1.436e-05   -3.109e-05   -1.574e-05  
    0.89000     1.587e-05    1.405e-05   -3.084e-05   -1.587e-05  
    0.90000     1.601e-05    1.375e-05   -3.057e-05   -1.601e-05  
    0.91000     1.614e-05    1.345e-05   -3.030e-05   -1.614e-05  
    0.92000     1.627e-05    1.315e-05   -3.002e-05   -1.627e-05  
    0.93000     1.639e-05    1.286e-05   -2.973e-05   -1.639e-05  
    0.94000     1.652e-05    1.256e-05   -2.943e-05   -1.652e-05  
    0.95000     1.664e-05    1.228e-05   -2.912e-05   -1.664e-05  
    0.96000     1.675e-05    1.199e-05   -2.881e-05   -1.675e-05  
    0.97000     1.687e-05    1.171e-05   -2.849e-05   -1.687e-05  
    0.98000     1.698e-05    1.143e-05   -2.816e-05   -1.698e-05  
    0.99000     1.709e-05    1.116e-05   -2.783e-05   -1.709e-05  
    1.00000     1.720e-05    1.089e-05   -2.749e-05   -1.720e-05  
    1.01000     1.730e-05    1.062e-05   -2.716e-05   -1.730e-05  
    1.02000     1.740e-05    1.035e-05   -2.681e-05   -1.740e-05  
    1.03000     1.750e-05    1.009e-05   -2.647e-05   -1.750e-05  
    1.04000     1.759e-05    9.834e-06   -2.612e-05   -1.759e-05  
    1.05000     1.769e-05    9.580e-06   -2.577e-05   -1.769e-05  
    1.06000     1.778e-05    9.329e-06   -2.542e-05   -1.778e-05  
    1.07000     1.787e-05    9.082e-06   -2.507e-05   -1.787e-05  
    1.08000     1.795e-05    8.838e-06   -2.471e-05   -1.795e-05  
    1.09000     1.804e-05    8.598e-06   -2.436e-05   -1.804e-05  
    1.10000     1.812e-05    8.362e-06   -2.400e-05   -1.812e-05  
    1.11000     1.820e-05    8.129e-06   -2.365e-05   -1.820e-05  
    1.12000     1.827e-05    7.899e-06   -2.329e-05   -1.827e-05  
    1.13000     1.835e-05    7.674e-06   -2.294e-05   -1.835e-05  
    1.14000     1.842e-05    7.451e-06   -2.259e-05   -1.842e-05  
    1.15000     1.849e-05    7.232e-06   -2.223e-05   -1.849e-05  
    1.16000     1.856e-05    7.017e-06   -2.188e-05   -1.856e-05  
    1.17000     1.862e-05    6.805e-06   -2.154e-05   -1.862e-05  
    1.18000     1.869e-05    6.597e-06   -2.119e-05   -1.869e-05  
    1.19000     1.875e-05    6.392e-06   -2.084e-05   -1.875e-05  
    1.20000     1.881e-05    6.190e-06   -2.050e-05   -1.881e-05  
    1.21000     1.887e-05    5.992e-06   -2.016e-05   -1.887e-05  
    1.22000     1.892e-05    5.797e-06   -1.982e-05   -1.892e-05  
    1.23000     1.898e-05    5.606e-06   -1.948e-05   -1.898e-05  
    1.24000     1.903e-05    5.417e-06   -1.915e-05   -1.903e-05  
    1.25000     1.908e-05    5.232e-06   -1.882e-05   -1.908e-05  
    1.26000     1.913e-05    5.051e-06   -1.849e-05   -1.913e-05  
    1.27000     1.918e-05    4.872e-06   -1.817e-05   -1.918e-05  
    1.28000     1.922e-05    4.697e-06   -1.785e-05   -1.922e-05  
    1.29000     1.926e-05    4.525e-06   -1.753e-05   -1.926e-05  
    1.30000     1.931e-05    4.356e-06   -1.722e-05   -1.931e-05  
y
-----------------------------------------------
 ******  
 *sample netlist for bsim6.0

  ******  dc transfer curves tnom=  25.000 temp=  25.000 *****

   *** source        0:vb =   -0.1000        ***

x

        volt    param        param        param        current    
                    ids          gm           gm2          vd     
   -1.30000     1.314e-08   -1.485e-05   -3.351e-06   -1.314e-08  
   -1.29000     1.280e-08   -1.929e-03   -1.921e-03   -1.280e-08  
   -1.28000     1.248e-08   -3.337e-08     -0.1915    -1.248e-08  
   -1.27000     1.216e-08   -3.267e-08      0.1929    -1.216e-08  
   -1.26000     1.184e-08   -3.197e-08    7.044e-08   -1.184e-08  
   -1.25000     1.154e-08   -3.129e-08    6.929e-08   -1.154e-08  
   -1.24000     1.124e-08   -3.062e-08    6.815e-08   -1.124e-08  
   -1.23000     1.094e-08   -2.996e-08    6.702e-08   -1.094e-08  
   -1.22000     1.066e-08   -2.931e-08    6.591e-08   -1.066e-08  
   -1.21000     1.038e-08   -2.868e-08    6.480e-08   -1.038e-08  
   -1.20000     1.010e-08   -2.805e-08    6.371e-08   -1.010e-08  
   -1.19000     9.834e-09   -2.743e-08    6.263e-08   -9.834e-09  
   -1.18000     9.572e-09   -2.683e-08    6.156e-08   -9.572e-09  
   -1.17000     9.315e-09   -2.624e-08    6.051e-08   -9.315e-09  
   -1.16000     9.064e-09   -2.565e-08    5.947e-08   -9.064e-09  
   -1.15000     8.819e-09   -2.508e-08    5.844e-08   -8.819e-09  
   -1.14000     8.580e-09   -2.451e-08    5.742e-08   -8.580e-09  
   -1.13000     8.346e-09   -2.396e-08    5.641e-08   -8.346e-09  
   -1.12000     8.117e-09   -2.341e-08    5.542e-08   -8.117e-09  
   -1.11000     7.893e-09   -2.288e-08    5.444e-08   -7.893e-09  
   -1.10000     7.675e-09   -2.235e-08    5.347e-08   -7.675e-09  
   -1.09000     7.462e-09   -2.184e-08    5.251e-08   -7.462e-09  
   -1.08000     7.253e-09   -2.133e-08    5.156e-08   -7.253e-09  
   -1.07000     7.050e-09   -2.084e-08    5.062e-08   -7.050e-09  
   -1.06000     6.851e-09   -2.035e-08    4.970e-08   -6.851e-09  
   -1.05000     6.657e-09   -1.987e-08    4.879e-08   -6.657e-09  
   -1.04000     6.468e-09   -1.940e-08    4.789e-08   -6.468e-09  
   -1.03000     6.283e-09   -1.894e-08    4.700e-08   -6.283e-09  
   -1.02000     6.102e-09   -1.848e-08    4.612e-08   -6.102e-09  
   -1.01000     5.926e-09   -1.804e-08    4.525e-08   -5.926e-09  
   -1.00000     5.755e-09   -1.761e-08    4.440e-08   -5.755e-09  
   -0.99000     5.587e-09   -1.718e-08    4.356e-08   -5.587e-09  
   -0.98000     5.423e-09   -1.676e-08    4.272e-08   -5.423e-09  
   -0.97000     5.264e-09   -1.635e-08    4.190e-08   -5.264e-09  
   -0.96000     5.109e-09   -1.595e-08    4.109e-08   -5.109e-09  
   -0.95000     4.957e-09   -1.555e-08    4.029e-08   -4.957e-09  
   -0.94000     4.809e-09   -1.516e-08    3.950e-08   -4.809e-09  
   -0.93000     4.665e-09   -1.478e-08    3.872e-08   -4.665e-09  
   -0.92000     4.524e-09   -1.441e-08    3.796e-08   -4.524e-09  
   -0.91000     4.388e-09   -1.405e-08    3.720e-08   -4.388e-09  
   -0.90000     4.254e-09   -1.369e-08    3.645e-08   -4.254e-09  
   -0.89000     4.124e-09   -1.334e-08    3.572e-08   -4.124e-09  
   -0.88000     3.998e-09   -1.300e-08    3.499e-08   -3.998e-09  
   -0.87000     3.874e-09   -1.266e-08    3.428e-08   -3.874e-09  
   -0.86000     3.754e-09   -1.233e-08    3.358e-08   -3.754e-09  
   -0.85000     3.637e-09   -1.201e-08    3.288e-08   -3.637e-09  
   -0.84000     3.523e-09   -1.170e-08    3.220e-08   -3.523e-09  
   -0.83000     3.412e-09   -1.139e-08    3.152e-08   -3.412e-09  
   -0.82000     3.305e-09   -1.108e-08    3.086e-08   -3.305e-09  
   -0.81000     3.200e-09   -1.079e-08    3.021e-08   -3.200e-09  
   -0.80000     3.097e-09   -1.050e-08    2.956e-08   -3.097e-09  
   -0.79000     2.998e-09   -1.022e-08    2.893e-08   -2.998e-09  
   -0.78000     2.901e-09   -9.940e-09    2.831e-08   -2.901e-09  
   -0.77000     2.807e-09   -9.669e-09    2.769e-08   -2.807e-09  
   -0.76000     2.716e-09   -9.404e-09    2.709e-08   -2.716e-09  
   -0.75000     2.627e-09   -9.145e-09    2.649e-08   -2.627e-09  
   -0.74000     2.541e-09   -8.891e-09    2.591e-08   -2.541e-09  
   -0.73000     2.456e-09   -8.644e-09    2.533e-08   -2.456e-09  
   -0.72000     2.375e-09   -8.402e-09    2.477e-08   -2.375e-09  
   -0.71000     2.296e-09   -8.165e-09    2.421e-08   -2.296e-09  
   -0.70000     2.218e-09   -7.934e-09    2.366e-08   -2.218e-09  
   -0.69000     2.144e-09   -7.708e-09    2.312e-08   -2.144e-09  
   -0.68000     2.071e-09   -7.487e-09    2.259e-08   -2.071e-09  
   -0.67000     2.000e-09   -7.272e-09    2.207e-08   -2.000e-09  
   -0.66000     1.932e-09   -7.061e-09    2.156e-08   -1.932e-09  
   -0.65000     1.865e-09   -6.856e-09    2.105e-08   -1.865e-09  
   -0.64000     1.801e-09   -6.655e-09    2.056e-08   -1.801e-09  
   -0.63000     1.738e-09   -6.459e-09    2.007e-08   -1.738e-09  
   -0.62000     1.677e-09   -6.268e-09    1.959e-08   -1.677e-09  
   -0.61000     1.618e-09   -6.081e-09    1.912e-08   -1.618e-09  
   -0.60000     1.561e-09   -5.899e-09    1.866e-08   -1.561e-09  
   -0.59000     1.505e-09   -5.721e-09    1.821e-08   -1.505e-09  
   -0.58000     1.452e-09   -5.548e-09    1.776e-08   -1.452e-09  
   -0.57000     1.399e-09   -5.379e-09    1.733e-08   -1.399e-09  
   -0.56000     1.349e-09   -5.214e-09    1.690e-08   -1.349e-09  
   -0.55000     1.300e-09   -5.054e-09    1.648e-08   -1.300e-09  
   -0.54000     1.252e-09   -4.897e-09    1.606e-08   -1.252e-09  
   -0.53000     1.207e-09   -4.745e-09    1.566e-08   -1.207e-09  
   -0.52000     1.162e-09   -4.596e-09    1.526e-08   -1.162e-09  
   -0.51000     1.119e-09   -4.451e-09    1.487e-08   -1.119e-09  
   -0.50000     1.077e-09   -4.310e-09    1.449e-08   -1.077e-09  
   -0.49000     1.037e-09   -4.172e-09    1.411e-08   -1.037e-09  
   -0.48000     9.977e-10   -4.039e-09    1.375e-08   -9.977e-10  
   -0.47000     9.599e-10   -3.908e-09    1.339e-08   -9.599e-10  
   -0.46000     9.233e-10   -3.781e-09    1.303e-08   -9.233e-10  
   -0.45000     8.879e-10   -3.658e-09    1.269e-08   -8.879e-10  
   -0.44000     8.537e-10   -3.538e-09    1.235e-08   -8.537e-10  
   -0.43000     8.207e-10   -3.421e-09    1.202e-08   -8.207e-10  
   -0.42000     7.887e-10   -3.307e-09    1.169e-08   -7.887e-10  
   -0.41000     7.578e-10   -3.196e-09    1.137e-08   -7.578e-10  
   -0.40000     7.280e-10   -3.089e-09    1.106e-08   -7.280e-10  
   -0.39000     6.991e-10   -2.984e-09    1.076e-08   -6.991e-10  
   -0.38000     6.713e-10   -2.882e-09    1.046e-08   -6.713e-10  
   -0.37000     6.444e-10   -2.783e-09    1.018e-08   -6.444e-10  
   -0.36000     6.185e-10   -2.687e-09    9.896e-09   -6.185e-10  
   -0.35000     5.935e-10   -2.594e-09    9.624e-09   -5.935e-10  
   -0.34000     5.693e-10   -2.503e-09    9.362e-09   -5.693e-10  
   -0.33000     5.461e-10   -2.414e-09    9.110e-09   -5.461e-10  
   -0.32000     5.236e-10   -2.327e-09    8.869e-09   -5.236e-10  
   -0.31000     5.020e-10   -2.243e-09    8.643e-09   -5.020e-10  
   -0.30000     4.812e-10   -2.161e-09    8.433e-09   -4.812e-10  
   -0.29000     4.612e-10   -2.080e-09    8.243e-09   -4.612e-10  
   -0.28000     4.420e-10   -2.000e-09    8.079e-09   -4.420e-10  
   -0.27000     4.236e-10   -1.922e-09    7.948e-09   -4.236e-10  
   -0.26000     4.059e-10   -1.844e-09    7.859e-09   -4.059e-10  
   -0.25000     3.891e-10   -1.765e-09    7.827e-09   -3.891e-10  
   -0.24000     3.730e-10   -1.685e-09    7.869e-09   -3.730e-10  
   -0.23000     3.579e-10   -1.602e-09    8.012e-09   -3.579e-10  
   -0.22000     3.437e-10   -1.514e-09    8.288e-09   -3.437e-10  
   -0.21000     3.306e-10   -1.420e-09    8.745e-09   -3.306e-10  
   -0.20000     3.186e-10   -1.315e-09    9.449e-09   -3.186e-10  
   -0.19000     3.081e-10   -1.195e-09    1.049e-08   -3.081e-10  
   -0.18000     2.992e-10   -1.054e-09    1.198e-08   -2.992e-10  
   -0.17000     2.925e-10   -8.840e-10    1.409e-08   -2.925e-10  
   -0.16000     2.884e-10   -6.725e-10    1.704e-08   -2.884e-10  
   -0.15000     2.879e-10   -4.042e-10    2.115e-08   -2.879e-10  
   -0.14000     2.918e-10   -5.766e-11    2.683e-08   -2.918e-10  
   -0.13000     3.018e-10    3.966e-10    3.466e-08   -3.018e-10  
   -0.12000     3.199e-10    9.988e-10    4.543e-08   -3.199e-10  
   -0.11000     3.487e-10    1.804e-09    6.022e-08   -3.487e-10  
   -0.10000     3.923e-10    2.887e-09    8.051e-08   -3.923e-10  
 -9.0000e-02    4.556e-10    4.352e-09    1.083e-07   -4.556e-10  
 -8.0000e-02    5.460e-10    6.338e-09    1.464e-07   -5.460e-10  
 -7.0000e-02    6.732e-10    9.039e-09    1.986e-07   -6.732e-10  
 -6.0000e-02    8.506e-10    1.272e-08    2.701e-07   -8.506e-10  
 -5.0000e-02    1.096e-09    1.774e-08    3.680e-07   -1.096e-09  
 -4.0000e-02    1.436e-09    2.459e-08    5.019e-07   -1.436e-09  
 -3.0000e-02    1.903e-09    3.395e-08    6.851e-07   -1.903e-09  
 -2.0000e-02    2.545e-09    4.673e-08    9.357e-07   -2.545e-09  
 -1.0000e-02    3.425e-09    6.419e-08    1.278e-06   -3.425e-09  
    0.          4.631e-09    8.803e-08    1.746e-06   -4.631e-09  
  1.0000e-02    6.280e-09    1.206e-07    2.384e-06   -6.280e-09  
  2.0000e-02    8.532e-09    1.649e-07    3.253e-06   -8.532e-09  
  3.0000e-02    1.160e-08    2.252e-07    4.433e-06   -1.160e-08  
  4.0000e-02    1.578e-08    3.071e-07    6.032e-06   -1.578e-08  
  5.0000e-02    2.145e-08    4.178e-07    8.187e-06   -2.145e-08  
  6.0000e-02    2.912e-08    5.670e-07    1.108e-05   -2.912e-08  
  7.0000e-02    3.943e-08    7.666e-07    1.491e-05   -3.943e-08  
  8.0000e-02    5.323e-08    1.032e-06    1.996e-05   -5.323e-08  
  9.0000e-02    7.155e-08    1.380e-06    2.651e-05   -7.155e-08  
    0.10000     9.563e-08    1.832e-06    3.483e-05   -9.563e-08  
    0.11000     1.269e-07    2.408e-06    4.517e-05   -1.269e-07  
    0.12000     1.670e-07    3.129e-06    5.762e-05   -1.670e-07  
    0.13000     2.176e-07    4.010e-06    7.208e-05   -2.176e-07  
    0.14000     2.803e-07    5.058e-06    8.809e-05   -2.803e-07  
    0.15000     3.567e-07    6.272e-06    1.049e-04   -3.567e-07  
    0.16000     4.478e-07    7.635e-06    1.214e-04   -4.478e-07  
    0.17000     5.546e-07    9.117e-06    1.362e-04   -5.546e-07  
    0.18000     6.775e-07    1.068e-05    1.483e-04   -6.775e-07  
    0.19000     8.162e-07    1.228e-05    1.564e-04   -8.162e-07  
    0.20000     9.705e-07    1.388e-05    1.601e-04   -9.705e-07  
    0.21000     1.139e-06    1.543e-05    1.595e-04   -1.139e-06  
    0.22000     1.322e-06    1.690e-05    1.549e-04   -1.322e-06  
    0.23000     1.517e-06    1.827e-05    1.471e-04   -1.517e-06  
    0.24000     1.724e-06    1.953e-05    1.371e-04   -1.724e-06  
    0.25000     1.941e-06    2.066e-05    1.258e-04   -1.941e-06  
    0.26000     2.167e-06    2.168e-05    1.138e-04   -2.167e-06  
    0.27000     2.401e-06    2.259e-05    1.018e-04   -2.401e-06  
    0.28000     2.641e-06    2.338e-05    9.019e-05   -2.641e-06  
    0.29000     2.888e-06    2.407e-05    7.917e-05   -2.888e-06  
    0.30000     3.140e-06    2.466e-05    6.894e-05   -3.140e-06  
    0.31000     3.396e-06    2.517e-05    5.955e-05   -3.396e-06  
    0.32000     3.655e-06    2.560e-05    5.102e-05   -3.655e-06  
    0.33000     3.918e-06    2.597e-05    4.328e-05   -3.918e-06  
    0.34000     4.183e-06    2.627e-05    3.628e-05   -4.183e-06  
    0.35000     4.450e-06    2.651e-05    2.995e-05   -4.450e-06  
    0.36000     4.718e-06    2.670e-05    2.422e-05   -4.718e-06  
    0.37000     4.988e-06    2.684e-05    1.903e-05   -4.988e-06  
    0.38000     5.258e-06    2.694e-05    1.432e-05   -5.258e-06  
    0.39000     5.528e-06    2.700e-05    1.005e-05   -5.528e-06  
    0.40000     5.798e-06    2.703e-05    6.155e-06   -5.798e-06  
    0.41000     6.068e-06    2.702e-05    2.607e-06   -6.068e-06  
    0.42000     6.338e-06    2.699e-05   -6.334e-07   -6.338e-06  
    0.43000     6.606e-06    2.693e-05   -3.597e-06   -6.606e-06  
    0.44000     6.873e-06    2.684e-05   -6.311e-06   -6.873e-06  
    0.45000     7.139e-06    2.673e-05   -8.800e-06   -7.139e-06  
    0.46000     7.404e-06    2.659e-05   -1.108e-05   -7.404e-06  
    0.47000     7.666e-06    2.644e-05   -1.318e-05   -7.666e-06  
    0.48000     7.927e-06    2.627e-05   -1.511e-05   -7.927e-06  
    0.49000     8.186e-06    2.609e-05   -1.689e-05   -8.186e-06  
    0.50000     8.443e-06    2.589e-05   -1.852e-05   -8.443e-06  
    0.51000     8.697e-06    2.568e-05   -2.002e-05   -8.697e-06  
    0.52000     8.950e-06    2.545e-05   -2.140e-05   -8.950e-06  
    0.53000     9.199e-06    2.521e-05   -2.267e-05   -9.199e-06  
    0.54000     9.446e-06    2.496e-05   -2.384e-05   -9.446e-06  
    0.55000     9.690e-06    2.470e-05   -2.491e-05   -9.690e-06  
    0.56000     9.932e-06    2.443e-05   -2.589e-05   -9.932e-06  
    0.57000     1.017e-05    2.416e-05   -2.678e-05   -1.017e-05  
    0.58000     1.041e-05    2.388e-05   -2.760e-05   -1.041e-05  
    0.59000     1.064e-05    2.358e-05   -2.834e-05   -1.064e-05  
    0.60000     1.087e-05    2.329e-05   -2.902e-05   -1.087e-05  
    0.61000     1.110e-05    2.299e-05   -2.963e-05   -1.110e-05  
    0.62000     1.132e-05    2.268e-05   -3.018e-05   -1.132e-05  
    0.63000     1.154e-05    2.237e-05   -3.067e-05   -1.154e-05  
    0.64000     1.176e-05    2.205e-05   -3.111e-05   -1.176e-05  
    0.65000     1.197e-05    2.174e-05   -3.149e-05   -1.197e-05  
    0.66000     1.218e-05    2.141e-05   -3.183e-05   -1.218e-05  
    0.67000     1.239e-05    2.109e-05   -3.212e-05   -1.239e-05  
    0.68000     1.259e-05    2.077e-05   -3.237e-05   -1.259e-05  
    0.69000     1.280e-05    2.044e-05   -3.258e-05   -1.280e-05  
    0.70000     1.299e-05    2.011e-05   -3.275e-05   -1.299e-05  
    0.71000     1.319e-05    1.978e-05   -3.289e-05   -1.319e-05  
    0.72000     1.338e-05    1.945e-05   -3.299e-05   -1.338e-05  
    0.73000     1.357e-05    1.912e-05   -3.306e-05   -1.357e-05  
    0.74000     1.375e-05    1.879e-05   -3.310e-05   -1.375e-05  
    0.75000     1.393e-05    1.846e-05   -3.310e-05   -1.393e-05  
    0.76000     1.411e-05    1.812e-05   -3.309e-05   -1.411e-05  
    0.77000     1.429e-05    1.780e-05   -3.304e-05   -1.429e-05  
    0.78000     1.446e-05    1.747e-05   -3.297e-05   -1.446e-05  
    0.79000     1.463e-05    1.714e-05   -3.288e-05   -1.463e-05  
    0.80000     1.479e-05    1.681e-05   -3.277e-05   -1.479e-05  
    0.81000     1.495e-05    1.649e-05   -3.263e-05   -1.495e-05  
    0.82000     1.511e-05    1.616e-05   -3.248e-05   -1.511e-05  
    0.83000     1.527e-05    1.584e-05   -3.231e-05   -1.527e-05  
    0.84000     1.542e-05    1.552e-05   -3.212e-05   -1.542e-05  
    0.85000     1.557e-05    1.521e-05   -3.192e-05   -1.557e-05  
    0.86000     1.571e-05    1.489e-05   -3.170e-05   -1.571e-05  
    0.87000     1.585e-05    1.458e-05   -3.147e-05   -1.585e-05  
    0.88000     1.599e-05    1.427e-05   -3.123e-05   -1.599e-05  
    0.89000     1.613e-05    1.396e-05   -3.097e-05   -1.613e-05  
    0.90000     1.626e-05    1.366e-05   -3.070e-05   -1.626e-05  
    0.91000     1.640e-05    1.336e-05   -3.042e-05   -1.640e-05  
    0.92000     1.652e-05    1.306e-05   -3.014e-05   -1.652e-05  
    0.93000     1.665e-05    1.276e-05   -2.984e-05   -1.665e-05  
    0.94000     1.677e-05    1.247e-05   -2.954e-05   -1.677e-05  
    0.95000     1.689e-05    1.218e-05   -2.923e-05   -1.689e-05  
    0.96000     1.700e-05    1.190e-05   -2.891e-05   -1.700e-05  
    0.97000     1.712e-05    1.161e-05   -2.858e-05   -1.712e-05  
    0.98000     1.723e-05    1.134e-05   -2.825e-05   -1.723e-05  
    0.99000     1.734e-05    1.106e-05   -2.792e-05   -1.734e-05  
    1.00000     1.744e-05    1.079e-05   -2.758e-05   -1.744e-05  
    1.01000     1.754e-05    1.052e-05   -2.724e-05   -1.754e-05  
    1.02000     1.764e-05    1.025e-05   -2.689e-05   -1.764e-05  
    1.03000     1.774e-05    9.991e-06   -2.654e-05   -1.774e-05  
    1.04000     1.784e-05    9.732e-06   -2.619e-05   -1.784e-05  
    1.05000     1.793e-05    9.477e-06   -2.584e-05   -1.793e-05  
    1.06000     1.802e-05    9.226e-06   -2.548e-05   -1.802e-05  
    1.07000     1.811e-05    8.978e-06   -2.513e-05   -1.811e-05  
    1.08000     1.819e-05    8.734e-06   -2.477e-05   -1.819e-05  
    1.09000     1.827e-05    8.494e-06   -2.441e-05   -1.827e-05  
    1.10000     1.835e-05    8.257e-06   -2.405e-05   -1.835e-05  
    1.11000     1.843e-05    8.023e-06   -2.370e-05   -1.843e-05  
    1.12000     1.851e-05    7.794e-06   -2.334e-05   -1.851e-05  
    1.13000     1.858e-05    7.567e-06   -2.298e-05   -1.858e-05  
    1.14000     1.865e-05    7.345e-06   -2.263e-05   -1.865e-05  
    1.15000     1.872e-05    7.125e-06   -2.227e-05   -1.872e-05  
    1.16000     1.879e-05    6.910e-06   -2.192e-05   -1.879e-05  
    1.17000     1.885e-05    6.698e-06   -2.157e-05   -1.885e-05  
    1.18000     1.892e-05    6.489e-06   -2.122e-05   -1.892e-05  
    1.19000     1.898e-05    6.284e-06   -2.087e-05   -1.898e-05  
    1.20000     1.904e-05    6.082e-06   -2.052e-05   -1.904e-05  
    1.21000     1.909e-05    5.884e-06   -2.018e-05   -1.909e-05  
    1.22000     1.915e-05    5.689e-06   -1.984e-05   -1.915e-05  
    1.23000     1.920e-05    5.497e-06   -1.950e-05   -1.920e-05  
    1.24000     1.925e-05    5.309e-06   -1.916e-05   -1.925e-05  
    1.25000     1.930e-05    5.124e-06   -1.883e-05   -1.930e-05  
    1.26000     1.935e-05    4.942e-06   -1.850e-05   -1.935e-05  
    1.27000     1.939e-05    4.763e-06   -1.818e-05   -1.939e-05  
    1.28000     1.944e-05    4.588e-06   -1.785e-05   -1.944e-05  
    1.29000     1.948e-05    4.416e-06   -1.753e-05   -1.948e-05  
    1.30000     1.952e-05    4.247e-06   -1.722e-05   -1.952e-05  
y
-----------------------------------------------
 ******  
 *sample netlist for bsim6.0

  ******  dc transfer curves tnom=  25.000 temp=  25.000 *****

   *** source        0:vb =    0.            ***

x

        volt    param        param        param        current    
                    ids          gm           gm2          vd     
   -1.30000     1.301e-08   -1.502e-05   -3.267e-06   -1.301e-08  
   -1.29000     1.268e-08   -1.951e-03   -1.926e-03   -1.268e-08  
   -1.28000     1.236e-08   -3.306e-08     -0.1936    -1.236e-08  
   -1.27000     1.204e-08   -3.236e-08      0.1951    -1.204e-08  
   -1.26000     1.173e-08   -3.168e-08    6.979e-08   -1.173e-08  
   -1.25000     1.143e-08   -3.100e-08    6.865e-08   -1.143e-08  
   -1.24000     1.113e-08   -3.034e-08    6.752e-08   -1.113e-08  
   -1.23000     1.084e-08   -2.969e-08    6.640e-08   -1.084e-08  
   -1.22000     1.056e-08   -2.904e-08    6.530e-08   -1.056e-08  
   -1.21000     1.028e-08   -2.841e-08    6.420e-08   -1.028e-08  
   -1.20000     1.001e-08   -2.779e-08    6.312e-08   -1.001e-08  
   -1.19000     9.743e-09   -2.718e-08    6.205e-08   -9.743e-09  
   -1.18000     9.483e-09   -2.658e-08    6.100e-08   -9.483e-09  
   -1.17000     9.229e-09   -2.599e-08    5.995e-08   -9.229e-09  
   -1.16000     8.981e-09   -2.541e-08    5.892e-08   -8.981e-09  
   -1.15000     8.738e-09   -2.484e-08    5.790e-08   -8.738e-09  
   -1.14000     8.500e-09   -2.429e-08    5.689e-08   -8.500e-09  
   -1.13000     8.268e-09   -2.374e-08    5.589e-08   -8.268e-09  
   -1.12000     8.042e-09   -2.320e-08    5.491e-08   -8.042e-09  
   -1.11000     7.820e-09   -2.267e-08    5.393e-08   -7.820e-09  
   -1.10000     7.604e-09   -2.215e-08    5.297e-08   -7.604e-09  
   -1.09000     7.393e-09   -2.164e-08    5.202e-08   -7.393e-09  
   -1.08000     7.186e-09   -2.114e-08    5.108e-08   -7.186e-09  
   -1.07000     6.985e-09   -2.064e-08    5.016e-08   -6.985e-09  
   -1.06000     6.788e-09   -2.016e-08    4.924e-08   -6.788e-09  
   -1.05000     6.595e-09   -1.969e-08    4.834e-08   -6.595e-09  
   -1.04000     6.408e-09   -1.922e-08    4.745e-08   -6.408e-09  
   -1.03000     6.225e-09   -1.876e-08    4.656e-08   -6.225e-09  
   -1.02000     6.046e-09   -1.831e-08    4.569e-08   -6.046e-09  
   -1.01000     5.872e-09   -1.787e-08    4.484e-08   -5.872e-09  
   -1.00000     5.701e-09   -1.744e-08    4.399e-08   -5.701e-09  
   -0.99000     5.535e-09   -1.702e-08    4.315e-08   -5.535e-09  
   -0.98000     5.373e-09   -1.660e-08    4.233e-08   -5.373e-09  
   -0.97000     5.215e-09   -1.620e-08    4.151e-08   -5.215e-09  
   -0.96000     5.061e-09   -1.580e-08    4.071e-08   -5.061e-09  
   -0.95000     4.911e-09   -1.541e-08    3.992e-08   -4.911e-09  
   -0.94000     4.765e-09   -1.502e-08    3.914e-08   -4.765e-09  
   -0.93000     4.622e-09   -1.465e-08    3.837e-08   -4.622e-09  
   -0.92000     4.483e-09   -1.428e-08    3.761e-08   -4.483e-09  
   -0.91000     4.347e-09   -1.392e-08    3.686e-08   -4.347e-09  
   -0.90000     4.215e-09   -1.356e-08    3.612e-08   -4.215e-09  
   -0.89000     4.086e-09   -1.322e-08    3.539e-08   -4.086e-09  
   -0.88000     3.961e-09   -1.288e-08    3.467e-08   -3.961e-09  
   -0.87000     3.838e-09   -1.254e-08    3.396e-08   -3.838e-09  
   -0.86000     3.719e-09   -1.222e-08    3.327e-08   -3.719e-09  
   -0.85000     3.604e-09   -1.190e-08    3.258e-08   -3.604e-09  
   -0.84000     3.491e-09   -1.159e-08    3.190e-08   -3.491e-09  
   -0.83000     3.381e-09   -1.128e-08    3.123e-08   -3.381e-09  
   -0.82000     3.274e-09   -1.098e-08    3.058e-08   -3.274e-09  
   -0.81000     3.170e-09   -1.069e-08    2.993e-08   -3.170e-09  
   -0.80000     3.069e-09   -1.040e-08    2.929e-08   -3.069e-09  
   -0.79000     2.970e-09   -1.012e-08    2.866e-08   -2.970e-09  
   -0.78000     2.875e-09   -9.848e-09    2.805e-08   -2.875e-09  
   -0.77000     2.781e-09   -9.579e-09    2.744e-08   -2.781e-09  
   -0.76000     2.691e-09   -9.317e-09    2.684e-08   -2.691e-09  
   -0.75000     2.603e-09   -9.060e-09    2.625e-08   -2.603e-09  
   -0.74000     2.517e-09   -8.809e-09    2.567e-08   -2.517e-09  
   -0.73000     2.434e-09   -8.564e-09    2.510e-08   -2.434e-09  
   -0.72000     2.353e-09   -8.324e-09    2.454e-08   -2.353e-09  
   -0.71000     2.274e-09   -8.090e-09    2.398e-08   -2.274e-09  
   -0.70000     2.198e-09   -7.861e-09    2.344e-08   -2.198e-09  
   -0.69000     2.124e-09   -7.637e-09    2.291e-08   -2.124e-09  
   -0.68000     2.052e-09   -7.418e-09    2.238e-08   -2.052e-09  
   -0.67000     1.982e-09   -7.205e-09    2.186e-08   -1.982e-09  
   -0.66000     1.914e-09   -6.996e-09    2.136e-08   -1.914e-09  
   -0.65000     1.848e-09   -6.792e-09    2.086e-08   -1.848e-09  
   -0.64000     1.784e-09   -6.593e-09    2.037e-08   -1.784e-09  
   -0.63000     1.722e-09   -6.399e-09    1.988e-08   -1.722e-09  
   -0.62000     1.662e-09   -6.210e-09    1.941e-08   -1.662e-09  
   -0.61000     1.603e-09   -6.025e-09    1.895e-08   -1.603e-09  
   -0.60000     1.546e-09   -5.845e-09    1.849e-08   -1.546e-09  
   -0.59000     1.491e-09   -5.669e-09    1.804e-08   -1.491e-09  
   -0.58000     1.438e-09   -5.497e-09    1.760e-08   -1.438e-09  
   -0.57000     1.386e-09   -5.330e-09    1.717e-08   -1.386e-09  
   -0.56000     1.336e-09   -5.166e-09    1.674e-08   -1.336e-09  
   -0.55000     1.288e-09   -5.007e-09    1.632e-08   -1.288e-09  
   -0.54000     1.241e-09   -4.852e-09    1.592e-08   -1.241e-09  
   -0.53000     1.195e-09   -4.701e-09    1.551e-08   -1.195e-09  
   -0.52000     1.151e-09   -4.553e-09    1.512e-08   -1.151e-09  
   -0.51000     1.109e-09   -4.410e-09    1.473e-08   -1.109e-09  
   -0.50000     1.067e-09   -4.270e-09    1.435e-08   -1.067e-09  
   -0.49000     1.027e-09   -4.134e-09    1.398e-08   -1.027e-09  
   -0.48000     9.885e-10   -4.001e-09    1.362e-08   -9.885e-10  
   -0.47000     9.510e-10   -3.872e-09    1.326e-08   -9.510e-10  
   -0.46000     9.148e-10   -3.746e-09    1.291e-08   -9.148e-10  
   -0.45000     8.797e-10   -3.624e-09    1.257e-08   -8.797e-10  
   -0.44000     8.458e-10   -3.505e-09    1.223e-08   -8.458e-10  
   -0.43000     8.131e-10   -3.389e-09    1.191e-08   -8.131e-10  
   -0.42000     7.814e-10   -3.276e-09    1.159e-08   -7.814e-10  
   -0.41000     7.508e-10   -3.167e-09    1.127e-08   -7.508e-10  
   -0.40000     7.212e-10   -3.060e-09    1.097e-08   -7.212e-10  
   -0.39000     6.927e-10   -2.956e-09    1.067e-08   -6.927e-10  
   -0.38000     6.651e-10   -2.855e-09    1.038e-08   -6.651e-10  
   -0.37000     6.385e-10   -2.757e-09    1.009e-08   -6.385e-10  
   -0.36000     6.128e-10   -2.662e-09    9.818e-09   -6.128e-10  
   -0.35000     5.880e-10   -2.569e-09    9.554e-09   -5.880e-10  
   -0.34000     5.641e-10   -2.478e-09    9.300e-09   -5.641e-10  
   -0.33000     5.411e-10   -2.390e-09    9.059e-09   -5.411e-10  
   -0.32000     5.189e-10   -2.304e-09    8.833e-09   -5.189e-10  
   -0.31000     4.975e-10   -2.219e-09    8.624e-09   -4.975e-10  
   -0.30000     4.770e-10   -2.136e-09    8.438e-09   -4.770e-10  
   -0.29000     4.573e-10   -2.055e-09    8.279e-09   -4.573e-10  
   -0.28000     4.383e-10   -1.974e-09    8.155e-09   -4.383e-10  
   -0.27000     4.202e-10   -1.893e-09    8.078e-09   -4.202e-10  
   -0.26000     4.029e-10   -1.812e-09    8.061e-09   -4.029e-10  
   -0.25000     3.865e-10   -1.729e-09    8.125e-09   -3.865e-10  
   -0.24000     3.710e-10   -1.643e-09    8.296e-09   -3.710e-10  
   -0.23000     3.564e-10   -1.552e-09    8.612e-09   -3.564e-10  
   -0.22000     3.430e-10   -1.453e-09    9.123e-09   -3.430e-10  
   -0.21000     3.308e-10   -1.343e-09    9.897e-09   -3.308e-10  
   -0.20000     3.202e-10   -1.216e-09    1.103e-08   -3.202e-10  
   -0.19000     3.113e-10   -1.067e-09    1.264e-08   -3.113e-10  
   -0.18000     3.047e-10   -8.861e-10    1.492e-08   -3.047e-10  
   -0.17000     3.009e-10   -6.613e-10    1.809e-08   -3.009e-10  
   -0.16000     3.009e-10   -3.760e-10    2.248e-08   -3.009e-10  
   -0.15000     3.056e-10   -7.579e-12    2.853e-08   -3.056e-10  
   -0.14000     3.168e-10    4.749e-10    3.684e-08   -3.168e-10  
   -0.13000     3.364e-10    1.114e-09    4.825e-08   -3.364e-10  
   -0.12000     3.675e-10    1.966e-09    6.387e-08   -3.675e-10  
   -0.11000     4.141e-10    3.111e-09    8.524e-08   -4.141e-10  
   -0.10000     4.815e-10    4.655e-09    1.145e-07   -4.815e-10  
 -9.0000e-02    5.773e-10    6.744e-09    1.544e-07   -5.773e-10  
 -8.0000e-02    7.116e-10    9.579e-09    2.090e-07   -7.116e-10  
 -7.0000e-02    8.984e-10    1.343e-08    2.835e-07   -8.984e-10  
 -6.0000e-02    1.157e-09    1.867e-08    3.853e-07   -1.157e-09  
 -5.0000e-02    1.512e-09    2.581e-08    5.243e-07   -1.512e-09  
 -4.0000e-02    2.000e-09    3.554e-08    7.140e-07   -2.000e-09  
 -3.0000e-02    2.669e-09    4.880e-08    9.728e-07   -2.669e-09  
 -2.0000e-02    3.583e-09    6.687e-08    1.326e-06   -3.583e-09  
 -1.0000e-02    4.833e-09    9.148e-08    1.807e-06   -4.833e-09  
    0.          6.539e-09    1.250e-07    2.461e-06   -6.539e-09  
  1.0000e-02    8.862e-09    1.705e-07    3.350e-06   -8.862e-09  
  2.0000e-02    1.202e-08    2.324e-07    4.555e-06   -1.202e-08  
  3.0000e-02    1.631e-08    3.161e-07    6.183e-06   -1.631e-08  
  4.0000e-02    2.212e-08    4.291e-07    8.372e-06   -2.212e-08  
  5.0000e-02    2.996e-08    5.808e-07    1.130e-05   -2.996e-08  
  6.0000e-02    4.048e-08    7.835e-07    1.518e-05   -4.048e-08  
  7.0000e-02    5.451e-08    1.052e-06    2.026e-05   -5.451e-08  
  8.0000e-02    7.310e-08    1.404e-06    2.684e-05   -7.310e-08  
  9.0000e-02    9.747e-08    1.859e-06    3.518e-05   -9.747e-08  
    0.10000     1.291e-07    2.438e-06    4.550e-05   -1.291e-07  
    0.11000     1.695e-07    3.160e-06    5.790e-05   -1.695e-07  
    0.12000     2.204e-07    4.041e-06    7.224e-05   -2.204e-07  
    0.13000     2.833e-07    5.088e-06    8.809e-05   -2.833e-07  
    0.14000     3.598e-07    6.297e-06    1.047e-04   -3.598e-07  
    0.15000     4.511e-07    7.652e-06    1.209e-04   -4.511e-07  
    0.16000     5.579e-07    9.126e-06    1.356e-04   -5.579e-07  
    0.17000     6.806e-07    1.068e-05    1.474e-04   -6.806e-07  
    0.18000     8.192e-07    1.227e-05    1.554e-04   -8.192e-07  
    0.19000     9.732e-07    1.386e-05    1.592e-04   -9.732e-07  
    0.20000     1.142e-06    1.540e-05    1.586e-04   -1.142e-06  
    0.21000     1.324e-06    1.687e-05    1.542e-04   -1.324e-06  
    0.22000     1.519e-06    1.824e-05    1.467e-04   -1.519e-06  
    0.23000     1.726e-06    1.950e-05    1.370e-04   -1.726e-06  
    0.24000     1.942e-06    2.064e-05    1.260e-04   -1.942e-06  
    0.25000     2.168e-06    2.167e-05    1.143e-04   -2.168e-06  
    0.26000     2.402e-06    2.258e-05    1.026e-04   -2.402e-06  
    0.27000     2.643e-06    2.338e-05    9.113e-05   -2.643e-06  
    0.28000     2.890e-06    2.408e-05    8.026e-05   -2.890e-06  
    0.29000     3.142e-06    2.469e-05    7.013e-05   -3.142e-06  
    0.30000     3.398e-06    2.521e-05    6.082e-05   -3.398e-06  
    0.31000     3.659e-06    2.566e-05    5.233e-05   -3.659e-06  
    0.32000     3.922e-06    2.604e-05    4.461e-05   -3.922e-06  
    0.33000     4.188e-06    2.635e-05    3.762e-05   -4.188e-06  
    0.34000     4.456e-06    2.660e-05    3.128e-05   -4.456e-06  
    0.35000     4.726e-06    2.681e-05    2.553e-05   -4.726e-06  
    0.36000     4.997e-06    2.696e-05    2.032e-05   -4.997e-06  
    0.37000     5.268e-06    2.708e-05    1.558e-05   -5.268e-06  
    0.38000     5.540e-06    2.715e-05    1.126e-05   -5.540e-06  
    0.39000     5.812e-06    2.719e-05    7.322e-06   -5.812e-06  
    0.40000     6.084e-06    2.719e-05    3.726e-06   -6.084e-06  
    0.41000     6.355e-06    2.716e-05    4.361e-07   -6.355e-06  
    0.42000     6.625e-06    2.711e-05   -2.579e-06   -6.625e-06  
    0.43000     6.894e-06    2.703e-05   -5.345e-06   -6.894e-06  
    0.44000     7.162e-06    2.693e-05   -7.887e-06   -7.162e-06  
    0.45000     7.429e-06    2.681e-05   -1.022e-05   -7.429e-06  
    0.46000     7.694e-06    2.666e-05   -1.238e-05   -7.694e-06  
    0.47000     7.957e-06    2.650e-05   -1.436e-05   -7.957e-06  
    0.48000     8.219e-06    2.632e-05   -1.619e-05   -8.219e-06  
    0.49000     8.478e-06    2.613e-05   -1.787e-05   -8.478e-06  
    0.50000     8.735e-06    2.592e-05   -1.942e-05   -8.735e-06  
    0.51000     8.989e-06    2.570e-05   -2.085e-05   -8.989e-06  
    0.52000     9.242e-06    2.546e-05   -2.217e-05   -9.242e-06  
    0.53000     9.491e-06    2.522e-05   -2.338e-05   -9.491e-06  
    0.54000     9.738e-06    2.496e-05   -2.450e-05   -9.738e-06  
    0.55000     9.982e-06    2.470e-05   -2.552e-05   -9.982e-06  
    0.56000     1.022e-05    2.443e-05   -2.646e-05   -1.022e-05  
    0.57000     1.046e-05    2.415e-05   -2.732e-05   -1.046e-05  
    0.58000     1.070e-05    2.386e-05   -2.810e-05   -1.070e-05  
    0.59000     1.093e-05    2.356e-05   -2.881e-05   -1.093e-05  
    0.60000     1.116e-05    2.326e-05   -2.946e-05   -1.116e-05  
    0.61000     1.139e-05    2.296e-05   -3.005e-05   -1.139e-05  
    0.62000     1.161e-05    2.265e-05   -3.057e-05   -1.161e-05  
    0.63000     1.183e-05    2.233e-05   -3.105e-05   -1.183e-05  
    0.64000     1.205e-05    2.201e-05   -3.147e-05   -1.205e-05  
    0.65000     1.226e-05    2.169e-05   -3.183e-05   -1.226e-05  
    0.66000     1.247e-05    2.137e-05   -3.216e-05   -1.247e-05  
    0.67000     1.268e-05    2.104e-05   -3.244e-05   -1.268e-05  
    0.68000     1.288e-05    2.071e-05   -3.267e-05   -1.288e-05  
    0.69000     1.308e-05    2.038e-05   -3.287e-05   -1.308e-05  
    0.70000     1.328e-05    2.005e-05   -3.303e-05   -1.328e-05  
    0.71000     1.347e-05    1.972e-05   -3.315e-05   -1.347e-05  
    0.72000     1.366e-05    1.938e-05   -3.324e-05   -1.366e-05  
    0.73000     1.385e-05    1.905e-05   -3.330e-05   -1.385e-05  
    0.74000     1.404e-05    1.872e-05   -3.333e-05   -1.404e-05  
    0.75000     1.422e-05    1.838e-05   -3.333e-05   -1.422e-05  
    0.76000     1.439e-05    1.805e-05   -3.330e-05   -1.439e-05  
    0.77000     1.457e-05    1.772e-05   -3.325e-05   -1.457e-05  
    0.78000     1.474e-05    1.739e-05   -3.317e-05   -1.474e-05  
    0.79000     1.490e-05    1.706e-05   -3.308e-05   -1.490e-05  
    0.80000     1.507e-05    1.673e-05   -3.296e-05   -1.507e-05  
    0.81000     1.523e-05    1.641e-05   -3.282e-05   -1.523e-05  
    0.82000     1.539e-05    1.608e-05   -3.266e-05   -1.539e-05  
    0.83000     1.554e-05    1.576e-05   -3.248e-05   -1.554e-05  
    0.84000     1.569e-05    1.544e-05   -3.229e-05   -1.569e-05  
    0.85000     1.584e-05    1.512e-05   -3.208e-05   -1.584e-05  
    0.86000     1.599e-05    1.480e-05   -3.185e-05   -1.599e-05  
    0.87000     1.613e-05    1.449e-05   -3.162e-05   -1.613e-05  
    0.88000     1.627e-05    1.418e-05   -3.137e-05   -1.627e-05  
    0.89000     1.640e-05    1.387e-05   -3.111e-05   -1.640e-05  
    0.90000     1.653e-05    1.356e-05   -3.083e-05   -1.653e-05  
    0.91000     1.666e-05    1.326e-05   -3.055e-05   -1.666e-05  
    0.92000     1.679e-05    1.296e-05   -3.026e-05   -1.679e-05  
    0.93000     1.691e-05    1.266e-05   -2.996e-05   -1.691e-05  
    0.94000     1.703e-05    1.237e-05   -2.965e-05   -1.703e-05  
    0.95000     1.715e-05    1.208e-05   -2.933e-05   -1.715e-05  
    0.96000     1.727e-05    1.179e-05   -2.901e-05   -1.727e-05  
    0.97000     1.738e-05    1.151e-05   -2.868e-05   -1.738e-05  
    0.98000     1.749e-05    1.123e-05   -2.835e-05   -1.749e-05  
    0.99000     1.760e-05    1.095e-05   -2.801e-05   -1.760e-05  
    1.00000     1.770e-05    1.068e-05   -2.767e-05   -1.770e-05  
    1.01000     1.780e-05    1.041e-05   -2.732e-05   -1.780e-05  
    1.02000     1.790e-05    1.015e-05   -2.697e-05   -1.790e-05  
    1.03000     1.800e-05    9.882e-06   -2.662e-05   -1.800e-05  
    1.04000     1.809e-05    9.623e-06   -2.626e-05   -1.809e-05  
    1.05000     1.818e-05    9.368e-06   -2.591e-05   -1.818e-05  
    1.06000     1.827e-05    9.116e-06   -2.555e-05   -1.827e-05  
    1.07000     1.836e-05    8.868e-06   -2.519e-05   -1.836e-05  
    1.08000     1.844e-05    8.623e-06   -2.483e-05   -1.844e-05  
    1.09000     1.852e-05    8.382e-06   -2.447e-05   -1.852e-05  
    1.10000     1.860e-05    8.145e-06   -2.410e-05   -1.860e-05  
    1.11000     1.868e-05    7.911e-06   -2.374e-05   -1.868e-05  
    1.12000     1.875e-05    7.681e-06   -2.338e-05   -1.875e-05  
    1.13000     1.883e-05    7.454e-06   -2.302e-05   -1.883e-05  
    1.14000     1.890e-05    7.231e-06   -2.266e-05   -1.890e-05  
    1.15000     1.896e-05    7.011e-06   -2.231e-05   -1.896e-05  
    1.16000     1.903e-05    6.795e-06   -2.195e-05   -1.903e-05  
    1.17000     1.909e-05    6.583e-06   -2.160e-05   -1.909e-05  
    1.18000     1.915e-05    6.374e-06   -2.124e-05   -1.915e-05  
    1.19000     1.921e-05    6.169e-06   -2.089e-05   -1.921e-05  
    1.20000     1.927e-05    5.967e-06   -2.054e-05   -1.927e-05  
    1.21000     1.933e-05    5.768e-06   -2.020e-05   -1.933e-05  
    1.22000     1.938e-05    5.573e-06   -1.985e-05   -1.938e-05  
    1.23000     1.943e-05    5.381e-06   -1.951e-05   -1.943e-05  
    1.24000     1.948e-05    5.193e-06   -1.918e-05   -1.948e-05  
    1.25000     1.953e-05    5.008e-06   -1.884e-05   -1.953e-05  
    1.26000     1.958e-05    4.826e-06   -1.851e-05   -1.958e-05  
    1.27000     1.962e-05    4.647e-06   -1.818e-05   -1.962e-05  
    1.28000     1.967e-05    4.472e-06   -1.785e-05   -1.967e-05  
    1.29000     1.971e-05    4.300e-06   -1.753e-05   -1.971e-05  
    1.30000     1.975e-05    4.131e-06   -1.721e-05   -1.975e-05  
y
-----------------------------------------------

          ***** job concluded
1****** HSPICE -- G-2012.06 32-BIT (May 27 2012) RHEL32 ******                  
 ******  
 *sample netlist for bsim6.0

  ******  job statistics summary tnom=  25.000 temp=  25.000 *****
  
  
 ******  Machine Information  ******
 CPU:
 model name	: AMD Opteron(tm) Processor 248
 cpu MHz	: 2200.023
  
 OS:
 Linux version 2.6.9-22.EL (bhcompile@crowe.devel.redhat.com) (gcc version 3.4.4 20050721 (Red Hat 3.4.4-2)) #1 Mon Sep 19 17:49:49 EDT 2005


  ******  HSPICE Threads Information  ******

  Command Line Threads Count :     1
  Available CPU Count        :     1
  Actual Threads Count       :     1


  ******  Circuit Statistics  ******
  # nodes       =      14 # elements   =       5
  # resistors   =       0 # capacitors =       0 # inductors   =       0
  # mutual_inds =       0 # vccs       =       0 # vcvs        =       0
  # cccs        =       0 # ccvs       =       0 # volt_srcs   =       4
  # curr_srcs   =       0 # diodes     =       0 # bjts        =       0
  # jfets       =       0 # mosfets    =       0 # U elements  =       0
  # T elements  =       0 # W elements =       0 # B elements  =       0
  # S elements  =       0 # P elements =       0 # va device   =       1
  # vector_srcs =       0 # N elements =       0


  ******  Runtime Statistics (seconds)  ******

  analysis           time    # points   tot. iter  conv.iter
  op point           0.00           1           0
  dc sweep           0.22        1044        2096
  readin             2.64
  errchk             0.03
  setup              0.00
  output             0.00


           peak memory used        112.78 megabytes
           total cpu time            2.89 seconds
           total elapsed time       12.25 seconds
           job started at     21:45:45 05/05/2013
           job ended   at     21:45:57 05/05/2013


 lic: Release hspice token(s) 
 lic: total license checkout elapse time:        0.21(s)


pVA concluded on Sun May  5 21:45:57 2013

