Using: /cad/synopsys/Hspice/G-2012.06/hspice/linux/hspice idvg_pmos.sp
 ****** HSPICE -- G-2012.06 32-BIT (May 27 2012) RHEL32 ******                  
  Copyright (C) 2012 Synopsys, Inc. All Rights Reserved.                        
  Unpublished-rights reserved under US copyright laws.
  This program is protected by law and is subject to the
  terms and conditions of the license agreement from Synopsys.
  Use of this program is your acceptance to be bound by the
  license agreement. HSPICE is the trademark of Synopsys, Inc.
  Input File: idvg_pmos.sp                                                      
  Command line options: idvg_pmos.sp
 lic: No 'setenv LM_LICENSE_FILE' in current environment' 
 lic:  
 lic: FLEXlm: v10.8 
 lic: USER:   agarwalh             HOSTNAME: xcel1.vlsi.iitk.ac.in 
 lic: HOSTID: 0008a1953eea         PID:      881 
 lic: Using FLEXlm license file: 
 lic: 27000@xcel0 
 lic: Checkout 1 hspice 
 lic: License/Maintenance for hspice will expire on 15-jun-2013/2011.09 
 lic: 1(in_use)/5(total) FLOATING license(s) on SERVER xcel0 
 lic:   
 Init: read install configuration file: /cad/synopsys/Hspice/G-2012.06/hspice/meta.cfg


 --------------------------------------------------------
|                                                        |
|          Synopsys Unified Verilog-A (pVA v2.0)         |
|                                                        |
|           Machine Name: xcel1.vlsi.iitk.ac.in          |
| Copyright (c) 2011 Synopsys Inc., All Rights Reserved. |
|                                                        |
 --------------------------------------------------------

libepva built by pvamgr synmake_pva_build  on Tue May  1 20:03:16 PDT 2012
HSP_HOME:   /cad/synopsys/Hspice/G-2012.06/hspice
HSP_ARCH:   linux
HSP_GCC :   /cad/synopsys/Hspice/G-2012.06/hspice/GNU/amd64/gcc-4.5.2-static/bin/gcc -m32 
HSP_GCC_VER:   4.5.2
Working-Dir: /users/phd/agarwalh/synopsys_designs/BSIM6/QA/BSIM6 Release/Release_5_May
Args:        -p hsp -t spi -f idvg_pmos.pvadir/pvaHDL.lis -o idvg_pmos.pvadir 


Begin of pVA compiling on Sun May  5 21:45:25 2013

Parsing './bsim6.va'
Parsing include file '/cad/synopsys/Hspice/G-2012.06/hspice/include/constants.vams'
Parsing include file '/cad/synopsys/Hspice/G-2012.06/hspice/include/disciplines.vams'

End of pVA compiling on Sun May  5 21:45:25 2013


End of build pVA DB on Sun May  5 21:45:25 2013

*pvaI* Module (bsim6): 4 unexpanded port, 0 init, 2191 behav, 65 contrib, 43/2272 expr(s)
*pvaI* Resizing DB size for v count = 1
*pvaI*        Has DIS (SB), 3 afCount
*pvaI*        0 const-G and 0 const-C, Has switch branch.
*pvaI* Module (bsim6): generated 7 flow node(s) during compilation.

End of pVA genC on Sun May  5 21:45:28 2013

*pvaI* #### Total 316 line-size(s), 43 expr(s), 65 contr(s), 0 init(s), 2191 behav(s), 4 port(s)

Generating idvg_pmos.pvadir/pvaRTL_linux.so


End of submitting pVA idvg_pmos.pvadir/pvaRTL.mak on Sun May  5 21:45:37 2013


End of pVA elaboration on Sun May  5 21:45:37 2013

 Loading pVA library idvg_pmos.pvadir/pvaRTL_linux.so...
1****** HSPICE -- G-2012.06 32-BIT (May 27 2012) RHEL32 ******                  
 ******  
 *sample netlist for bsim6.0

  ******  circuit name directory
 circuit number to circuit name directory
   number circuitname                     definition         multiplier
        0 main circuit
        1 x1.                             bsim6(va)          1.00 
*pvaI* Creating Verilog-A module 'bsim6' for X1
  
      
 *****************************************************************
 ******  option summary
 ******
 runlvl  = 3         bypass  = 2         
  Opening plot unit= 15
 file=idvg_pmos.pa0                                                            

 ******  
 *sample netlist for bsim6.0

  ******  dc transfer curves tnom=  25.000 temp=  25.000 *****

   *** source        0:vb =    0.            ***

x

        volt    param        param        param      
                    ids          gm           gm2    
   -1.30000     6.734e-06      0.           0.       
   -1.29000     6.709e-06    6.734e-04      0.       
   -1.28000     6.684e-06   -2.472e-06    6.734e-02  
   -1.27000     6.658e-06   -2.511e-06   -6.758e-02  
   -1.26000     6.632e-06   -2.549e-06   -3.830e-06  
   -1.25000     6.606e-06   -2.589e-06   -3.887e-06  
   -1.24000     6.579e-06   -2.629e-06   -3.945e-06  
   -1.23000     6.552e-06   -2.670e-06   -4.004e-06  
   -1.22000     6.525e-06   -2.711e-06   -4.063e-06  
   -1.21000     6.497e-06   -2.753e-06   -4.124e-06  
   -1.20000     6.468e-06   -2.795e-06   -4.185e-06  
   -1.19000     6.440e-06   -2.838e-06   -4.247e-06  
   -1.18000     6.410e-06   -2.882e-06   -4.311e-06  
   -1.17000     6.381e-06   -2.926e-06   -4.375e-06  
   -1.16000     6.350e-06   -2.971e-06   -4.439e-06  
   -1.15000     6.320e-06   -3.017e-06   -4.505e-06  
   -1.14000     6.289e-06   -3.064e-06   -4.572e-06  
   -1.13000     6.257e-06   -3.111e-06   -4.639e-06  
   -1.12000     6.225e-06   -3.158e-06   -4.707e-06  
   -1.11000     6.193e-06   -3.207e-06   -4.777e-06  
   -1.10000     6.159e-06   -3.256e-06   -4.847e-06  
   -1.09000     6.126e-06   -3.306e-06   -4.918e-06  
   -1.08000     6.092e-06   -3.357e-06   -4.989e-06  
   -1.07000     6.057e-06   -3.408e-06   -5.062e-06  
   -1.06000     6.022e-06   -3.460e-06   -5.136e-06  
   -1.05000     5.986e-06   -3.513e-06   -5.210e-06  
   -1.04000     5.950e-06   -3.566e-06   -5.285e-06  
   -1.03000     5.913e-06   -3.621e-06   -5.361e-06  
   -1.02000     5.876e-06   -3.676e-06   -5.438e-06  
   -1.01000     5.838e-06   -3.732e-06   -5.516e-06  
   -1.00000     5.800e-06   -3.789e-06   -5.594e-06  
   -0.99000     5.761e-06   -3.846e-06   -5.673e-06  
   -0.98000     5.721e-06   -3.905e-06   -5.753e-06  
   -0.97000     5.681e-06   -3.964e-06   -5.834e-06  
   -0.96000     5.640e-06   -4.024e-06   -5.915e-06  
   -0.95000     5.599e-06   -4.084e-06   -5.997e-06  
   -0.94000     5.556e-06   -4.146e-06   -6.080e-06  
   -0.93000     5.514e-06   -4.209e-06   -6.163e-06  
   -0.92000     5.470e-06   -4.272e-06   -6.246e-06  
   -0.91000     5.426e-06   -4.336e-06   -6.331e-06  
   -0.90000     5.382e-06   -4.401e-06   -6.415e-06  
   -0.89000     5.336e-06   -4.467e-06   -6.500e-06  
   -0.88000     5.290e-06   -4.534e-06   -6.586e-06  
   -0.87000     5.244e-06   -4.601e-06   -6.671e-06  
   -0.86000     5.196e-06   -4.670e-06   -6.757e-06  
   -0.85000     5.148e-06   -4.739e-06   -6.843e-06  
   -0.84000     5.099e-06   -4.809e-06   -6.929e-06  
   -0.83000     5.050e-06   -4.880e-06   -7.015e-06  
   -0.82000     5.000e-06   -4.952e-06   -7.101e-06  
   -0.81000     4.949e-06   -5.025e-06   -7.186e-06  
   -0.80000     4.897e-06   -5.098e-06   -7.272e-06  
   -0.79000     4.844e-06   -5.173e-06   -7.356e-06  
   -0.78000     4.791e-06   -5.248e-06   -7.440e-06  
   -0.77000     4.737e-06   -5.324e-06   -7.524e-06  
   -0.76000     4.682e-06   -5.401e-06   -7.606e-06  
   -0.75000     4.627e-06   -5.478e-06   -7.687e-06  
   -0.74000     4.571e-06   -5.557e-06   -7.767e-06  
   -0.73000     4.513e-06   -5.636e-06   -7.845e-06  
   -0.72000     4.455e-06   -5.716e-06   -7.922e-06  
   -0.71000     4.397e-06   -5.797e-06   -7.997e-06  
   -0.70000     4.337e-06   -5.878e-06   -8.069e-06  
   -0.69000     4.277e-06   -5.960e-06   -8.139e-06  
   -0.68000     4.215e-06   -6.043e-06   -8.207e-06  
   -0.67000     4.153e-06   -6.126e-06   -8.271e-06  
   -0.66000     4.090e-06   -6.210e-06   -8.332e-06  
   -0.65000     4.026e-06   -6.295e-06   -8.388e-06  
   -0.64000     3.962e-06   -6.379e-06   -8.441e-06  
   -0.63000     3.896e-06   -6.465e-06   -8.489e-06  
   -0.62000     3.830e-06   -6.550e-06   -8.531e-06  
   -0.61000     3.763e-06   -6.636e-06   -8.568e-06  
   -0.60000     3.695e-06   -6.723e-06   -8.598e-06  
   -0.59000     3.626e-06   -6.809e-06   -8.622e-06  
   -0.58000     3.556e-06   -6.895e-06   -8.637e-06  
   -0.57000     3.485e-06   -6.982e-06   -8.645e-06  
   -0.56000     3.414e-06   -7.068e-06   -8.643e-06  
   -0.55000     3.341e-06   -7.154e-06   -8.630e-06  
   -0.54000     3.268e-06   -7.240e-06   -8.607e-06  
   -0.53000     3.194e-06   -7.325e-06   -8.571e-06  
   -0.52000     3.119e-06   -7.410e-06   -8.522e-06  
   -0.51000     3.043e-06   -7.494e-06   -8.458e-06  
   -0.50000     2.967e-06   -7.576e-06   -8.378e-06  
   -0.49000     2.889e-06   -7.658e-06   -8.280e-06  
   -0.48000     2.811e-06   -7.738e-06   -8.163e-06  
   -0.47000     2.732e-06   -7.817e-06   -8.024e-06  
   -0.46000     2.652e-06   -7.894e-06   -7.861e-06  
   -0.45000     2.572e-06   -7.968e-06   -7.672e-06  
   -0.44000     2.491e-06   -8.040e-06   -7.454e-06  
   -0.43000     2.409e-06   -8.109e-06   -7.205e-06  
   -0.42000     2.327e-06   -8.175e-06   -6.921e-06  
   -0.41000     2.244e-06   -8.238e-06   -6.597e-06  
   -0.40000     2.160e-06   -8.296e-06   -6.232e-06  
   -0.39000     2.076e-06   -8.349e-06   -5.818e-06  
   -0.38000     1.992e-06   -8.398e-06   -5.352e-06  
   -0.37000     1.907e-06   -8.440e-06   -4.828e-06  
   -0.36000     1.822e-06   -8.476e-06   -4.238e-06  
   -0.35000     1.737e-06   -8.504e-06   -3.576e-06  
   -0.34000     1.652e-06   -8.524e-06   -2.834e-06  
   -0.33000     1.566e-06   -8.535e-06   -2.001e-06  
   -0.32000     1.481e-06   -8.535e-06   -1.068e-06  
   -0.31000     1.396e-06   -8.524e-06   -2.314e-08  
   -0.30000     1.311e-06   -8.499e-06    1.148e-06  
   -0.29000     1.227e-06   -8.460e-06    2.459e-06  
   -0.28000     1.144e-06   -8.404e-06    3.926e-06  
   -0.27000     1.062e-06   -8.330e-06    5.568e-06  
   -0.26000     9.806e-07   -8.235e-06    7.403e-06  
   -0.25000     9.008e-07   -8.118e-06    9.453e-06  
   -0.24000     8.228e-07   -7.975e-06    1.174e-05  
   -0.23000     7.467e-07   -7.805e-06    1.427e-05  
   -0.22000     6.731e-07   -7.603e-06    1.708e-05  
   -0.21000     6.021e-07   -7.368e-06    2.015e-05  
   -0.20000     5.342e-07   -7.097e-06    2.350e-05  
   -0.19000     4.698e-07   -6.789e-06    2.707e-05  
   -0.18000     4.092e-07   -6.443e-06    3.081e-05  
   -0.17000     3.528e-07   -6.059e-06    3.463e-05  
   -0.16000     3.009e-07   -5.639e-06    3.841e-05  
   -0.15000     2.538e-07   -5.188e-06    4.197e-05  
   -0.14000     2.116e-07   -4.712e-06    4.512e-05  
   -0.13000     1.744e-07   -4.220e-06    4.761e-05  
   -0.12000     1.420e-07   -3.723e-06    4.921e-05  
   -0.11000     1.144e-07   -3.232e-06    4.972e-05  
   -0.10000     9.119e-08   -2.762e-06    4.901e-05  
 -9.0000e-02    7.198e-08   -2.322e-06    4.707e-05  
 -8.0000e-02    5.632e-08   -1.921e-06    4.401e-05  
 -7.0000e-02    4.373e-08   -1.566e-06    4.005e-05  
 -6.0000e-02    3.373e-08   -1.259e-06    3.551e-05  
 -5.0000e-02    2.588e-08   -9.998e-07    3.070e-05  
 -4.0000e-02    1.977e-08   -7.854e-07    2.593e-05  
 -3.0000e-02    1.504e-08   -6.114e-07    2.144e-05  
 -2.0000e-02    1.142e-08   -4.723e-07    1.741e-05  
 -1.0000e-02    8.647e-09   -3.626e-07    1.391e-05  
    0.          6.539e-09   -2.770e-07    1.097e-05  
  1.0000e-02    4.939e-09   -2.108e-07    8.557e-06  
  2.0000e-02    3.727e-09   -1.600e-07    6.618e-06  
  3.0000e-02    2.811e-09   -1.211e-07    5.084e-06  
  4.0000e-02    2.120e-09   -9.158e-08    3.884e-06  
  5.0000e-02    1.598e-09   -6.915e-08    2.956e-06  
  6.0000e-02    1.205e-09   -5.217e-08    2.243e-06  
  7.0000e-02    9.083e-10   -3.934e-08    1.698e-06  
  8.0000e-02    6.848e-10   -2.965e-08    1.283e-06  
  9.0000e-02    5.164e-10   -2.235e-08    9.686e-07  
    0.10000     3.895e-10   -1.684e-08    7.306e-07  
    0.11000     2.938e-10   -1.269e-08    5.507e-07  
    0.12000     2.217e-10   -9.565e-09    4.150e-07  
    0.13000     1.674e-10   -7.210e-09    3.126e-07  
    0.14000     1.264e-10   -5.436e-09    2.355e-07  
    0.15000     9.545e-11   -4.099e-09    1.774e-07  
    0.16000     7.212e-11   -3.092e-09    1.337e-07  
    0.17000     5.451e-11   -2.333e-09    1.007e-07  
    0.18000     4.122e-11   -1.761e-09    7.591e-08  
    0.19000     3.119e-11   -1.329e-09    5.722e-08  
    0.20000     2.360e-11   -1.004e-09    4.315e-08  
    0.21000     1.788e-11   -7.582e-10    3.254e-08  
    0.22000     1.354e-11   -5.729e-10    2.455e-08  
    0.23000     1.027e-11   -4.331e-10    1.853e-08  
    0.24000     7.793e-12   -3.275e-10    1.398e-08  
    0.25000     5.919e-12   -2.477e-10    1.056e-08  
    0.26000     4.500e-12   -1.874e-10    7.976e-09  
    0.27000     3.425e-12   -1.419e-10    6.027e-09  
    0.28000     2.611e-12   -1.074e-10    4.555e-09  
    0.29000     1.995e-12   -8.140e-11    3.444e-09  
    0.30000     1.527e-12   -6.169e-11    2.605e-09  
    0.31000     1.172e-12   -4.677e-11    1.971e-09  
    0.32000     9.030e-13   -3.547e-11    1.492e-09  
    0.33000     6.987e-13   -2.691e-11    1.130e-09  
    0.34000     5.435e-13   -2.043e-11    8.557e-10  
    0.35000     4.257e-13   -1.551e-11    6.484e-10  
    0.36000     3.361e-13   -1.179e-11    4.916e-10  
    0.37000     2.680e-13   -8.958e-12    3.728e-10  
    0.38000     2.162e-13   -6.811e-12    2.828e-10  
    0.39000     1.767e-13   -5.182e-12    2.147e-10  
    0.40000     1.467e-13   -3.944e-12    1.630e-10  
    0.41000     1.238e-13   -3.003e-12    1.238e-10  
    0.42000     1.064e-13   -2.287e-12    9.408e-11  
    0.43000     9.311e-14   -1.743e-12    7.153e-11  
    0.44000     8.296e-14   -1.329e-12    5.441e-11  
    0.45000     7.522e-14   -1.014e-12    4.140e-11  
    0.46000     6.931e-14   -7.742e-13    3.152e-11  
    0.47000     6.479e-14   -5.912e-13    2.401e-11  
    0.48000     6.134e-14   -4.518e-13    1.829e-11  
    0.49000     5.870e-14   -3.454e-13    1.395e-11  
    0.50000     5.667e-14   -2.642e-13    1.064e-11  
    0.51000     5.513e-14   -2.022e-13    8.118e-12  
    0.52000     5.394e-14   -1.549e-13    6.199e-12  
    0.53000     5.303e-14   -1.187e-13    4.735e-12  
    0.54000     5.233e-14   -9.099e-14    3.620e-12  
    0.55000     5.179e-14   -6.981e-14    2.768e-12  
    0.56000     5.138e-14   -5.359e-14    2.118e-12  
    0.57000     5.107e-14   -4.117e-14    1.622e-12  
    0.58000     5.082e-14   -3.164e-14    1.242e-12  
    0.59000     5.064e-14   -2.434e-14    9.522e-13  
    0.60000     5.049e-14   -1.874e-14    7.303e-13  
    0.61000     5.038e-14   -1.443e-14    5.605e-13  
    0.62000     5.029e-14   -1.112e-14    4.304e-13  
    0.63000     5.023e-14   -8.581e-15    3.307e-13  
    0.64000     5.018e-14   -6.624e-15    2.543e-13  
    0.65000     5.014e-14   -5.117e-15    1.957e-13  
    0.66000     5.011e-14   -3.957e-15    1.507e-13  
    0.67000     5.008e-14   -3.062e-15    1.161e-13  
    0.68000     5.006e-14   -2.371e-15    8.950e-14  
    0.69000     5.005e-14   -1.838e-15    6.906e-14  
    0.70000     5.004e-14   -1.426e-15    5.333e-14  
    0.71000     5.003e-14   -1.107e-15    4.121e-14  
    0.72000     5.002e-14   -8.604e-16    3.187e-14  
    0.73000     5.002e-14   -6.693e-16    2.467e-14  
    0.74000     5.001e-14   -5.212e-16    1.911e-14  
    0.75000     5.001e-14   -4.062e-16    1.481e-14  
    0.76000     5.001e-14   -3.170e-16    1.149e-14  
    0.77000     5.001e-14   -2.476e-16    8.926e-15  
    0.78000     5.001e-14   -1.936e-16    6.939e-15  
    0.79000     5.000e-14   -1.515e-16    5.399e-15  
    0.80000     5.000e-14   -1.188e-16    4.204e-15  
    0.81000     5.000e-14   -9.319e-17    3.278e-15  
    0.82000     5.000e-14   -7.321e-17    2.558e-15  
    0.83000     5.000e-14   -5.759e-17    1.998e-15  
    0.84000     5.000e-14   -4.536e-17    1.562e-15  
    0.85000     5.000e-14   -3.578e-17    1.223e-15  
    0.86000     5.000e-14   -2.826e-17    9.584e-16  
    0.87000     5.000e-14   -2.235e-17    7.520e-16  
    0.88000     5.000e-14   -1.770e-17    5.907e-16  
    0.89000     5.000e-14   -1.404e-17    4.646e-16  
    0.90000     5.000e-14   -1.116e-17    3.658e-16  
    0.91000     5.000e-14   -8.882e-18    2.885e-16  
    0.92000     5.000e-14   -7.081e-18    2.278e-16  
    0.93000     5.000e-14   -5.655e-18    1.801e-16  
    0.94000     5.000e-14   -4.525e-18    1.426e-16  
    0.95000     5.000e-14   -3.627e-18    1.130e-16  
    0.96000     5.000e-14   -2.913e-18    8.976e-17  
    0.97000     5.000e-14   -2.345e-18    7.139e-17  
    0.98000     5.000e-14   -1.891e-18    5.687e-17  
    0.99000     5.000e-14   -1.528e-18    4.537e-17  
    1.00000     5.000e-14   -1.238e-18    3.626e-17  
    1.01000     5.000e-14   -1.005e-18    2.903e-17  
    1.02000     5.000e-14   -8.182e-19    2.328e-17  
    1.03000     5.000e-14   -6.677e-19    1.871e-17  
    1.04000     5.000e-14   -5.463e-19    1.505e-17  
    1.05000     5.000e-14   -4.483e-19    1.214e-17  
    1.06000     5.000e-14   -3.691e-19    9.799e-18  
    1.07000     5.000e-14   -3.050e-19    7.921e-18  
    1.08000     5.000e-14   -2.531e-19    6.408e-18  
    1.09000     5.000e-14   -2.111e-19    5.187e-18  
    1.10000     5.000e-14   -1.770e-19    4.201e-18  
    1.11000     5.000e-14   -1.493e-19    3.408e-18  
    1.12000     5.000e-14   -1.266e-19    2.774e-18  
    1.13000     5.000e-14   -1.080e-19    2.269e-18  
    1.14000     5.000e-14   -9.260e-20    1.864e-18  
    1.15000     5.000e-14   -7.983e-20    1.537e-18  
    1.16000     5.000e-14   -6.908e-20    1.277e-18  
    1.17000     5.000e-14   -5.988e-20    1.075e-18  
    1.18000     5.000e-14   -5.187e-20    9.205e-19  
    1.19000     5.000e-14   -4.485e-20    8.005e-19  
    1.20000     5.000e-14   -3.870e-20    7.017e-19  
    1.21000     5.000e-14   -3.334e-20    6.151e-19  
    1.22000     5.000e-14   -2.869e-20    5.365e-19  
    1.23000     5.000e-14   -2.468e-20    4.649e-19  
    1.24000     5.000e-14   -2.125e-20    4.006e-19  
    1.25000     5.000e-14   -1.831e-20    3.436e-19  
    1.26000     5.000e-14   -1.580e-20    2.938e-19  
    1.27000     5.000e-14   -1.366e-20    2.508e-19  
    1.28000     5.000e-14   -1.184e-20    2.139e-19  
    1.29000     5.000e-14   -1.028e-20    1.824e-19  
    1.30000     5.000e-14   -8.953e-21    1.556e-19  
y
-----------------------------------------------
 ******  
 *sample netlist for bsim6.0

  ******  dc transfer curves tnom=  25.000 temp=  25.000 *****

   *** source        0:vb =   -0.1000        ***

x

        volt    param        param        param      
                    ids          gm           gm2    
   -1.30000     6.807e-06   -3.846e-14    6.887e-21  
   -1.29000     6.782e-06    6.807e-04   -3.846e-12  
   -1.28000     6.758e-06   -2.439e-06    6.807e-02  
   -1.27000     6.732e-06   -2.478e-06   -6.831e-02  
   -1.26000     6.707e-06   -2.516e-06   -3.812e-06  
   -1.25000     6.681e-06   -2.556e-06   -3.869e-06  
   -1.24000     6.655e-06   -2.595e-06   -3.927e-06  
   -1.23000     6.628e-06   -2.636e-06   -3.986e-06  
   -1.22000     6.601e-06   -2.677e-06   -4.046e-06  
   -1.21000     6.573e-06   -2.719e-06   -4.107e-06  
   -1.20000     6.545e-06   -2.761e-06   -4.168e-06  
   -1.19000     6.517e-06   -2.804e-06   -4.230e-06  
   -1.18000     6.488e-06   -2.847e-06   -4.294e-06  
   -1.17000     6.458e-06   -2.892e-06   -4.358e-06  
   -1.16000     6.428e-06   -2.937e-06   -4.423e-06  
   -1.15000     6.398e-06   -2.982e-06   -4.488e-06  
   -1.14000     6.367e-06   -3.028e-06   -4.555e-06  
   -1.13000     6.336e-06   -3.075e-06   -4.623e-06  
   -1.12000     6.304e-06   -3.123e-06   -4.691e-06  
   -1.11000     6.272e-06   -3.171e-06   -4.760e-06  
   -1.10000     6.240e-06   -3.220e-06   -4.831e-06  
   -1.09000     6.206e-06   -3.270e-06   -4.902e-06  
   -1.08000     6.173e-06   -3.320e-06   -4.974e-06  
   -1.07000     6.138e-06   -3.372e-06   -5.047e-06  
   -1.06000     6.104e-06   -3.424e-06   -5.120e-06  
   -1.05000     6.068e-06   -3.476e-06   -5.195e-06  
   -1.04000     6.032e-06   -3.530e-06   -5.270e-06  
   -1.03000     5.996e-06   -3.584e-06   -5.347e-06  
   -1.02000     5.959e-06   -3.639e-06   -5.424e-06  
   -1.01000     5.922e-06   -3.695e-06   -5.502e-06  
   -1.00000     5.884e-06   -3.751e-06   -5.580e-06  
   -0.99000     5.845e-06   -3.809e-06   -5.660e-06  
   -0.98000     5.806e-06   -3.867e-06   -5.740e-06  
   -0.97000     5.766e-06   -3.926e-06   -5.821e-06  
   -0.96000     5.725e-06   -3.986e-06   -5.903e-06  
   -0.95000     5.684e-06   -4.047e-06   -5.985e-06  
   -0.94000     5.643e-06   -4.108e-06   -6.068e-06  
   -0.93000     5.600e-06   -4.170e-06   -6.152e-06  
   -0.92000     5.557e-06   -4.234e-06   -6.236e-06  
   -0.91000     5.514e-06   -4.298e-06   -6.321e-06  
   -0.90000     5.469e-06   -4.363e-06   -6.406e-06  
   -0.89000     5.424e-06   -4.428e-06   -6.492e-06  
   -0.88000     5.379e-06   -4.495e-06   -6.578e-06  
   -0.87000     5.332e-06   -4.563e-06   -6.664e-06  
   -0.86000     5.285e-06   -4.631e-06   -6.751e-06  
   -0.85000     5.238e-06   -4.700e-06   -6.837e-06  
   -0.84000     5.189e-06   -4.770e-06   -6.924e-06  
   -0.83000     5.140e-06   -4.841e-06   -7.011e-06  
   -0.82000     5.090e-06   -4.913e-06   -7.098e-06  
   -0.81000     5.040e-06   -4.986e-06   -7.184e-06  
   -0.80000     4.988e-06   -5.059e-06   -7.271e-06  
   -0.79000     4.936e-06   -5.134e-06   -7.357e-06  
   -0.78000     4.883e-06   -5.209e-06   -7.442e-06  
   -0.77000     4.830e-06   -5.285e-06   -7.527e-06  
   -0.76000     4.775e-06   -5.362e-06   -7.610e-06  
   -0.75000     4.720e-06   -5.440e-06   -7.693e-06  
   -0.74000     4.664e-06   -5.518e-06   -7.775e-06  
   -0.73000     4.607e-06   -5.598e-06   -7.855e-06  
   -0.72000     4.550e-06   -5.678e-06   -7.933e-06  
   -0.71000     4.491e-06   -5.759e-06   -8.010e-06  
   -0.70000     4.432e-06   -5.840e-06   -8.085e-06  
   -0.69000     4.372e-06   -5.922e-06   -8.157e-06  
   -0.68000     4.311e-06   -6.005e-06   -8.227e-06  
   -0.67000     4.250e-06   -6.089e-06   -8.294e-06  
   -0.66000     4.187e-06   -6.173e-06   -8.357e-06  
   -0.65000     4.124e-06   -6.258e-06   -8.417e-06  
   -0.64000     4.059e-06   -6.343e-06   -8.473e-06  
   -0.63000     3.994e-06   -6.429e-06   -8.525e-06  
   -0.62000     3.928e-06   -6.515e-06   -8.571e-06  
   -0.61000     3.861e-06   -6.601e-06   -8.612e-06  
   -0.60000     3.793e-06   -6.688e-06   -8.647e-06  
   -0.59000     3.725e-06   -6.775e-06   -8.676e-06  
   -0.58000     3.655e-06   -6.862e-06   -8.697e-06  
   -0.57000     3.585e-06   -6.949e-06   -8.711e-06  
   -0.56000     3.514e-06   -7.037e-06   -8.715e-06  
   -0.55000     3.442e-06   -7.123e-06   -8.710e-06  
   -0.54000     3.369e-06   -7.210e-06   -8.695e-06  
   -0.53000     3.295e-06   -7.296e-06   -8.668e-06  
   -0.52000     3.220e-06   -7.382e-06   -8.628e-06  
   -0.51000     3.145e-06   -7.467e-06   -8.575e-06  
   -0.50000     3.068e-06   -7.551e-06   -8.506e-06  
   -0.49000     2.991e-06   -7.635e-06   -8.421e-06  
   -0.48000     2.913e-06   -7.717e-06   -8.318e-06  
   -0.47000     2.834e-06   -7.797e-06   -8.194e-06  
   -0.46000     2.755e-06   -7.876e-06   -8.049e-06  
   -0.45000     2.675e-06   -7.953e-06   -7.880e-06  
   -0.44000     2.594e-06   -8.027e-06   -7.684e-06  
   -0.43000     2.512e-06   -8.099e-06   -7.458e-06  
   -0.42000     2.430e-06   -8.168e-06   -7.201e-06  
   -0.41000     2.347e-06   -8.234e-06   -6.908e-06  
   -0.40000     2.263e-06   -8.296e-06   -6.576e-06  
   -0.39000     2.179e-06   -8.354e-06   -6.201e-06  
   -0.38000     2.095e-06   -8.407e-06   -5.777e-06  
   -0.37000     2.010e-06   -8.455e-06   -5.301e-06  
   -0.36000     1.924e-06   -8.496e-06   -4.766e-06  
   -0.35000     1.839e-06   -8.531e-06   -4.166e-06  
   -0.34000     1.753e-06   -8.559e-06   -3.493e-06  
   -0.33000     1.667e-06   -8.578e-06   -2.740e-06  
   -0.32000     1.581e-06   -8.587e-06   -1.896e-06  
   -0.31000     1.495e-06   -8.586e-06   -9.527e-07  
   -0.30000     1.410e-06   -8.573e-06    1.025e-07  
   -0.29000     1.325e-06   -8.547e-06    1.282e-06  
   -0.28000     1.240e-06   -8.506e-06    2.601e-06  
   -0.27000     1.157e-06   -8.449e-06    4.074e-06  
   -0.26000     1.074e-06   -8.374e-06    5.719e-06  
   -0.25000     9.923e-07   -8.278e-06    7.555e-06  
   -0.24000     9.121e-07   -8.159e-06    9.600e-06  
   -0.23000     8.337e-07   -8.015e-06    1.188e-05  
   -0.22000     7.573e-07   -7.843e-06    1.440e-05  
   -0.21000     6.832e-07   -7.641e-06    1.718e-05  
   -0.20000     6.119e-07   -7.406e-06    2.022e-05  
   -0.19000     5.436e-07   -7.135e-06    2.352e-05  
   -0.18000     4.788e-07   -6.828e-06    2.704e-05  
   -0.17000     4.177e-07   -6.484e-06    3.072e-05  
   -0.16000     3.609e-07   -6.102e-06    3.447e-05  
   -0.15000     3.085e-07   -5.685e-06    3.817e-05  
   -0.14000     2.609e-07   -5.237e-06    4.167e-05  
   -0.13000     2.181e-07   -4.765e-06    4.478e-05  
   -0.12000     1.803e-07   -4.276e-06    4.725e-05  
   -0.11000     1.474e-07   -3.782e-06    4.887e-05  
   -0.10000     1.191e-07   -3.293e-06    4.944e-05  
 -9.0000e-02    9.530e-08   -2.823e-06    4.884e-05  
 -8.0000e-02    7.552e-08   -2.382e-06    4.703e-05  
 -7.0000e-02    5.932e-08   -1.979e-06    4.412e-05  
 -6.0000e-02    4.625e-08   -1.620e-06    4.032e-05  
 -5.0000e-02    3.582e-08   -1.308e-06    3.590e-05  
 -4.0000e-02    2.759e-08   -1.043e-06    3.119e-05  
 -3.0000e-02    2.115e-08   -8.229e-07    2.647e-05  
 -2.0000e-02    1.616e-08   -6.433e-07    2.201e-05  
 -1.0000e-02    1.231e-08   -4.991e-07    1.796e-05  
    0.          9.363e-09   -3.848e-07    1.442e-05  
  1.0000e-02    7.108e-09   -2.952e-07    1.143e-05  
  2.0000e-02    5.389e-09   -2.255e-07    8.960e-06  
  3.0000e-02    4.083e-09   -1.718e-07    6.962e-06  
  4.0000e-02    3.092e-09   -1.306e-07    5.371e-06  
  5.0000e-02    2.340e-09   -9.913e-08    4.122e-06  
  6.0000e-02    1.771e-09   -7.514e-08    3.149e-06  
  7.0000e-02    1.340e-09   -5.690e-08    2.399e-06  
  8.0000e-02    1.015e-09   -4.307e-08    1.823e-06  
  9.0000e-02    7.680e-10   -3.259e-08    1.383e-06  
    0.10000     5.815e-10   -2.466e-08    1.048e-06  
    0.11000     4.404e-10   -1.865e-08    7.935e-07  
    0.12000     3.336e-10   -1.411e-08    6.004e-07  
    0.13000     2.528e-10   -1.068e-08    4.541e-07  
    0.14000     1.917e-10   -8.080e-09    3.434e-07  
    0.15000     1.453e-10   -6.117e-09    2.597e-07  
    0.16000     1.103e-10   -4.631e-09    1.964e-07  
    0.17000     8.369e-11   -3.508e-09    1.485e-07  
    0.18000     6.355e-11   -2.658e-09    1.124e-07  
    0.19000     4.827e-11   -2.014e-09    8.501e-08  
    0.20000     3.669e-11   -1.527e-09    6.434e-08  
    0.21000     2.790e-11   -1.158e-09    4.871e-08  
    0.22000     2.123e-11   -8.789e-10    3.689e-08  
    0.23000     1.617e-11   -6.671e-10    2.794e-08  
    0.24000     1.232e-11   -5.066e-10    2.118e-08  
    0.25000     9.391e-12   -3.849e-10    1.605e-08  
    0.26000     7.167e-12   -2.925e-10    1.217e-08  
    0.27000     5.475e-12   -2.224e-10    9.236e-09  
    0.28000     4.187e-12   -1.692e-10    7.010e-09  
    0.29000     3.207e-12   -1.288e-10    5.322e-09  
    0.30000     2.460e-12   -9.804e-11    4.043e-09  
    0.31000     1.891e-12   -7.468e-11    3.072e-09  
    0.32000     1.457e-12   -5.692e-11    2.336e-09  
    0.33000     1.126e-12   -4.340e-11    1.777e-09  
    0.34000     8.732e-13   -3.311e-11    1.352e-09  
    0.35000     6.802e-13   -2.527e-11    1.029e-09  
    0.36000     5.327e-13   -1.930e-11    7.838e-10  
    0.37000     4.200e-13   -1.475e-11    5.972e-10  
    0.38000     3.337e-13   -1.127e-11    4.553e-10  
    0.39000     2.678e-13   -8.623e-12    3.473e-10  
    0.40000     2.172e-13   -6.600e-12    2.650e-10  
    0.41000     1.785e-13   -5.054e-12    2.023e-10  
    0.42000     1.488e-13   -3.872e-12    1.546e-10  
    0.43000     1.260e-13   -2.969e-12    1.181e-10  
    0.44000     1.085e-13   -2.278e-12    9.035e-11  
    0.45000     9.511e-14   -1.749e-12    6.913e-11  
    0.46000     8.478e-14   -1.343e-12    5.292e-11  
    0.47000     7.684e-14   -1.032e-12    4.054e-11  
    0.48000     7.073e-14   -7.940e-13    3.107e-11  
    0.49000     6.602e-14   -6.112e-13    2.383e-11  
    0.50000     6.240e-14   -4.707e-13    1.829e-11  
    0.51000     5.960e-14   -3.628e-13    1.404e-11  
    0.52000     5.744e-14   -2.799e-13    1.079e-11  
    0.53000     5.577e-14   -2.160e-13    8.296e-12  
    0.54000     5.448e-14   -1.669e-13    6.383e-12  
    0.55000     5.348e-14   -1.290e-13    4.914e-12  
    0.56000     5.271e-14   -9.983e-14    3.786e-12  
    0.57000     5.211e-14   -7.731e-14    2.919e-12  
    0.58000     5.164e-14   -5.992e-14    2.252e-12  
    0.59000     5.128e-14   -4.648e-14    1.739e-12  
    0.60000     5.100e-14   -3.609e-14    1.344e-12  
    0.61000     5.078e-14   -2.805e-14    1.039e-12  
    0.62000     5.061e-14   -2.182e-14    8.043e-13  
    0.63000     5.048e-14   -1.699e-14    6.230e-13  
    0.64000     5.038e-14   -1.324e-14    4.830e-13  
    0.65000     5.030e-14   -1.033e-14    3.747e-13  
    0.66000     5.023e-14   -8.067e-15    2.910e-13  
    0.67000     5.018e-14   -6.308e-15    2.262e-13  
    0.68000     5.014e-14   -4.937e-15    1.760e-13  
    0.69000     5.011e-14   -3.869e-15    1.370e-13  
    0.70000     5.009e-14   -3.036e-15    1.068e-13  
    0.71000     5.007e-14   -2.385e-15    8.335e-14  
    0.72000     5.006e-14   -1.876e-15    6.510e-14  
    0.73000     5.005e-14   -1.477e-15    5.090e-14  
    0.74000     5.004e-14   -1.165e-15    3.985e-14  
    0.75000     5.003e-14   -9.201e-16    3.122e-14  
    0.76000     5.002e-14   -7.276e-16    2.450e-14  
    0.77000     5.002e-14   -5.763e-16    1.924e-14  
    0.78000     5.001e-14   -4.572e-16    1.513e-14  
    0.79000     5.001e-14   -3.632e-16    1.192e-14  
    0.80000     5.001e-14   -2.891e-16    9.394e-15  
    0.81000     5.001e-14   -2.304e-16    7.416e-15  
    0.82000     5.001e-14   -1.840e-16    5.863e-15  
    0.83000     5.001e-14   -1.472e-16    4.642e-15  
    0.84000     5.000e-14   -1.180e-16    3.680e-15  
    0.85000     5.000e-14   -9.477e-17    2.922e-15  
    0.86000     5.000e-14   -7.626e-17    2.324e-15  
    0.87000     5.000e-14   -6.149e-17    1.851e-15  
    0.88000     5.000e-14   -4.970e-17    1.476e-15  
    0.89000     5.000e-14   -4.025e-17    1.180e-15  
    0.90000     5.000e-14   -3.268e-17    9.445e-16  
    0.91000     5.000e-14   -2.659e-17    7.574e-16  
    0.92000     5.000e-14   -2.170e-17    6.084e-16  
    0.93000     5.000e-14   -1.775e-17    4.896e-16  
    0.94000     5.000e-14   -1.456e-17    3.947e-16  
    0.95000     5.000e-14   -1.199e-17    3.186e-16  
    0.96000     5.000e-14   -9.904e-18    2.575e-16  
    0.97000     5.000e-14   -8.218e-18    2.084e-16  
    0.98000     5.000e-14   -6.852e-18    1.686e-16  
    0.99000     5.000e-14   -5.744e-18    1.366e-16  
    1.00000     5.000e-14   -4.842e-18    1.108e-16  
    1.01000     5.000e-14   -4.105e-18    9.016e-17  
    1.02000     5.000e-14   -3.500e-18    7.371e-17  
    1.03000     5.000e-14   -3.001e-18    6.053e-17  
    1.04000     5.000e-14   -2.586e-18    4.992e-17  
    1.05000     5.000e-14   -2.237e-18    4.146e-17  
    1.06000     5.000e-14   -1.939e-18    3.486e-17  
    1.07000     5.000e-14   -1.680e-18    2.982e-17  
    1.08000     5.000e-14   -1.453e-18    2.592e-17  
    1.09000     5.000e-14   -1.254e-18    2.271e-17  
    1.10000     5.000e-14   -1.080e-18    1.991e-17  
    1.11000     5.000e-14   -9.295e-19    1.737e-17  
    1.12000     5.000e-14   -7.997e-19    1.506e-17  
    1.13000     5.000e-14   -6.884e-19    1.298e-17  
    1.14000     5.000e-14   -5.931e-19    1.114e-17  
    1.15000     5.000e-14   -5.118e-19    9.524e-18  
    1.16000     5.000e-14   -4.425e-19    8.130e-18  
    1.17000     5.000e-14   -3.834e-19    6.934e-18  
    1.18000     5.000e-14   -3.329e-19    5.912e-18  
    1.19000     5.000e-14   -2.898e-19    5.044e-18  
    1.20000     5.000e-14   -2.530e-19    4.308e-18  
    1.21000     5.000e-14   -2.214e-19    3.684e-18  
    1.22000     5.000e-14   -1.943e-19    3.156e-18  
    1.23000     5.000e-14   -1.710e-19    2.709e-18  
    1.24000     5.000e-14   -1.509e-19    2.331e-18  
    1.25000     5.000e-14   -1.336e-19    2.010e-18  
    1.26000     5.000e-14   -1.185e-19    1.738e-18  
    1.27000     5.000e-14   -1.054e-19    1.506e-18  
    1.28000     5.000e-14   -9.401e-20    1.309e-18  
    1.29000     5.000e-14   -8.405e-20    1.140e-18  
    1.30000     5.000e-14   -7.534e-20    9.955e-19  
y
-----------------------------------------------
 ******  
 *sample netlist for bsim6.0

  ******  dc transfer curves tnom=  25.000 temp=  25.000 *****

   *** source        0:vb =   -0.2000        ***

x

        volt    param        param        param      
                    ids          gm           gm2    
   -1.30000     6.885e-06   -3.846e-14    5.795e-20  
   -1.29000     6.861e-06    6.885e-04   -3.846e-12  
   -1.28000     6.837e-06   -2.403e-06    6.885e-02  
   -1.27000     6.812e-06   -2.440e-06   -6.909e-02  
   -1.26000     6.787e-06   -2.479e-06   -3.790e-06  
   -1.25000     6.761e-06   -2.518e-06   -3.848e-06  
   -1.24000     6.735e-06   -2.558e-06   -3.906e-06  
   -1.23000     6.709e-06   -2.598e-06   -3.964e-06  
   -1.22000     6.682e-06   -2.639e-06   -4.024e-06  
   -1.21000     6.655e-06   -2.680e-06   -4.085e-06  
   -1.20000     6.627e-06   -2.722e-06   -4.146e-06  
   -1.19000     6.599e-06   -2.765e-06   -4.208e-06  
   -1.18000     6.571e-06   -2.808e-06   -4.272e-06  
   -1.17000     6.542e-06   -2.852e-06   -4.336e-06  
   -1.16000     6.512e-06   -2.897e-06   -4.401e-06  
   -1.15000     6.482e-06   -2.942e-06   -4.467e-06  
   -1.14000     6.452e-06   -2.988e-06   -4.533e-06  
   -1.13000     6.421e-06   -3.035e-06   -4.601e-06  
   -1.12000     6.390e-06   -3.082e-06   -4.669e-06  
   -1.11000     6.358e-06   -3.131e-06   -4.739e-06  
   -1.10000     6.326e-06   -3.179e-06   -4.809e-06  
   -1.09000     6.293e-06   -3.229e-06   -4.880e-06  
   -1.08000     6.260e-06   -3.279e-06   -4.953e-06  
   -1.07000     6.226e-06   -3.330e-06   -5.026e-06  
   -1.06000     6.192e-06   -3.382e-06   -5.099e-06  
   -1.05000     6.157e-06   -3.434e-06   -5.174e-06  
   -1.04000     6.121e-06   -3.488e-06   -5.250e-06  
   -1.03000     6.085e-06   -3.542e-06   -5.326e-06  
   -1.02000     6.049e-06   -3.597e-06   -5.404e-06  
   -1.01000     6.012e-06   -3.652e-06   -5.482e-06  
   -1.00000     5.974e-06   -3.709e-06   -5.561e-06  
   -0.99000     5.936e-06   -3.766e-06   -5.640e-06  
   -0.98000     5.897e-06   -3.824e-06   -5.721e-06  
   -0.97000     5.858e-06   -3.883e-06   -5.802e-06  
   -0.96000     5.817e-06   -3.942e-06   -5.884e-06  
   -0.95000     5.777e-06   -4.003e-06   -5.967e-06  
   -0.94000     5.736e-06   -4.064e-06   -6.051e-06  
   -0.93000     5.694e-06   -4.126e-06   -6.135e-06  
   -0.92000     5.651e-06   -4.189e-06   -6.219e-06  
   -0.91000     5.608e-06   -4.253e-06   -6.305e-06  
   -0.90000     5.564e-06   -4.318e-06   -6.390e-06  
   -0.89000     5.520e-06   -4.384e-06   -6.477e-06  
   -0.88000     5.474e-06   -4.450e-06   -6.563e-06  
   -0.87000     5.429e-06   -4.518e-06   -6.650e-06  
   -0.86000     5.382e-06   -4.586e-06   -6.737e-06  
   -0.85000     5.335e-06   -4.655e-06   -6.825e-06  
   -0.84000     5.287e-06   -4.725e-06   -6.913e-06  
   -0.83000     5.238e-06   -4.796e-06   -7.000e-06  
   -0.82000     5.189e-06   -4.868e-06   -7.088e-06  
   -0.81000     5.139e-06   -4.940e-06   -7.176e-06  
   -0.80000     5.088e-06   -5.014e-06   -7.263e-06  
   -0.79000     5.036e-06   -5.088e-06   -7.350e-06  
   -0.78000     4.984e-06   -5.163e-06   -7.437e-06  
   -0.77000     4.931e-06   -5.239e-06   -7.523e-06  
   -0.76000     4.877e-06   -5.316e-06   -7.608e-06  
   -0.75000     4.822e-06   -5.394e-06   -7.692e-06  
   -0.74000     4.766e-06   -5.473e-06   -7.775e-06  
   -0.73000     4.710e-06   -5.552e-06   -7.857e-06  
   -0.72000     4.653e-06   -5.632e-06   -7.938e-06  
   -0.71000     4.595e-06   -5.713e-06   -8.016e-06  
   -0.70000     4.536e-06   -5.795e-06   -8.093e-06  
   -0.69000     4.477e-06   -5.877e-06   -8.168e-06  
   -0.68000     4.416e-06   -5.960e-06   -8.240e-06  
   -0.67000     4.355e-06   -6.044e-06   -8.310e-06  
   -0.66000     4.293e-06   -6.128e-06   -8.376e-06  
   -0.65000     4.230e-06   -6.213e-06   -8.440e-06  
   -0.64000     4.166e-06   -6.299e-06   -8.499e-06  
   -0.63000     4.101e-06   -6.385e-06   -8.554e-06  
   -0.62000     4.036e-06   -6.471e-06   -8.605e-06  
   -0.61000     3.969e-06   -6.558e-06   -8.650e-06  
   -0.60000     3.902e-06   -6.646e-06   -8.690e-06  
   -0.59000     3.834e-06   -6.733e-06   -8.724e-06  
   -0.58000     3.765e-06   -6.821e-06   -8.751e-06  
   -0.57000     3.695e-06   -6.909e-06   -8.770e-06  
   -0.56000     3.624e-06   -6.996e-06   -8.782e-06  
   -0.55000     3.552e-06   -7.084e-06   -8.784e-06  
   -0.54000     3.479e-06   -7.172e-06   -8.777e-06  
   -0.53000     3.406e-06   -7.259e-06   -8.759e-06  
   -0.52000     3.332e-06   -7.346e-06   -8.729e-06  
   -0.51000     3.256e-06   -7.432e-06   -8.686e-06  
   -0.50000     3.180e-06   -7.518e-06   -8.629e-06  
   -0.49000     3.104e-06   -7.603e-06   -8.557e-06  
   -0.48000     3.026e-06   -7.686e-06   -8.468e-06  
   -0.47000     2.947e-06   -7.768e-06   -8.361e-06  
   -0.46000     2.868e-06   -7.849e-06   -8.233e-06  
   -0.45000     2.788e-06   -7.928e-06   -8.083e-06  
   -0.44000     2.707e-06   -8.005e-06   -7.909e-06  
   -0.43000     2.626e-06   -8.080e-06   -7.707e-06  
   -0.42000     2.544e-06   -8.152e-06   -7.477e-06  
   -0.41000     2.461e-06   -8.222e-06   -7.214e-06  
   -0.40000     2.377e-06   -8.287e-06   -6.916e-06  
   -0.39000     2.293e-06   -8.349e-06   -6.578e-06  
   -0.38000     2.208e-06   -8.407e-06   -6.197e-06  
   -0.37000     2.123e-06   -8.460e-06   -5.768e-06  
   -0.36000     2.038e-06   -8.507e-06   -5.287e-06  
   -0.35000     1.952e-06   -8.549e-06   -4.747e-06  
   -0.34000     1.866e-06   -8.583e-06   -4.143e-06  
   -0.33000     1.780e-06   -8.611e-06   -3.466e-06  
   -0.32000     1.693e-06   -8.629e-06   -2.710e-06  
   -0.31000     1.607e-06   -8.638e-06   -1.866e-06  
   -0.30000     1.521e-06   -8.637e-06   -9.234e-07  
   -0.29000     1.435e-06   -8.624e-06    1.288e-07  
   -0.28000     1.349e-06   -8.598e-06    1.303e-06  
   -0.27000     1.264e-06   -8.557e-06    2.612e-06  
   -0.26000     1.180e-06   -8.500e-06    4.072e-06  
   -0.25000     1.097e-06   -8.425e-06    5.699e-06  
   -0.24000     1.014e-06   -8.330e-06    7.510e-06  
   -0.23000     9.338e-07   -8.212e-06    9.523e-06  
   -0.22000     8.547e-07   -8.070e-06    1.176e-05  
   -0.21000     7.777e-07   -7.901e-06    1.423e-05  
   -0.20000     7.030e-07   -7.701e-06    1.695e-05  
   -0.19000     6.310e-07   -7.470e-06    1.993e-05  
   -0.18000     5.620e-07   -7.204e-06    2.314e-05  
   -0.17000     4.963e-07   -6.903e-06    2.657e-05  
   -0.16000     4.344e-07   -6.564e-06    3.016e-05  
   -0.15000     3.766e-07   -6.190e-06    3.382e-05  
   -0.14000     3.232e-07   -5.781e-06    3.745e-05  
   -0.13000     2.744e-07   -5.341e-06    4.090e-05  
   -0.12000     2.305e-07   -4.876e-06    4.399e-05  
   -0.11000     1.915e-07   -4.393e-06    4.651e-05  
   -0.10000     1.573e-07   -3.903e-06    4.825e-05  
 -9.0000e-02    1.279e-07   -3.417e-06    4.902e-05  
 -8.0000e-02    1.029e-07   -2.945e-06    4.866e-05  
 -7.0000e-02    8.197e-08   -2.500e-06    4.715e-05  
 -6.0000e-02    6.475e-08   -2.090e-06    4.454e-05  
 -5.0000e-02    5.076e-08   -1.722e-06    4.100e-05  
 -4.0000e-02    3.953e-08   -1.399e-06    3.680e-05  
 -3.0000e-02    3.061e-08   -1.123e-06    3.224e-05  
 -2.0000e-02    2.360e-08   -8.919e-07    2.760e-05  
 -1.0000e-02    1.812e-08   -7.016e-07    2.314e-05  
    0.          1.388e-08   -5.475e-07    1.903e-05  
  1.0000e-02    1.060e-08   -4.245e-07    1.541e-05  
  2.0000e-02    8.086e-09   -3.274e-07    1.230e-05  
  3.0000e-02    6.161e-09   -2.515e-07    9.708e-06  
  4.0000e-02    4.690e-09   -1.926e-07    7.591e-06  
  5.0000e-02    3.568e-09   -1.471e-07    5.892e-06  
  6.0000e-02    2.713e-09   -1.122e-07    4.547e-06  
  7.0000e-02    2.063e-09   -8.543e-08    3.493e-06  
  8.0000e-02    1.569e-09   -6.500e-08    2.675e-06  
  9.0000e-02    1.193e-09   -4.943e-08    2.043e-06  
    0.10000     9.078e-10   -3.758e-08    1.557e-06  
    0.11000     6.907e-10   -2.856e-08    1.185e-06  
    0.12000     5.258e-10   -2.171e-08    9.016e-07  
    0.13000     4.003e-10   -1.650e-08    6.853e-07  
    0.14000     3.049e-10   -1.254e-08    5.207e-07  
    0.15000     2.324e-10   -9.539e-09    3.956e-07  
    0.16000     1.772e-10   -7.256e-09    3.005e-07  
    0.17000     1.351e-10   -5.521e-09    2.283e-07  
    0.18000     1.031e-10   -4.203e-09    1.735e-07  
    0.19000     7.874e-11   -3.200e-09    1.318e-07  
    0.20000     6.016e-11   -2.438e-09    1.002e-07  
    0.21000     4.599e-11   -1.858e-09    7.622e-08  
    0.22000     3.518e-11   -1.417e-09    5.799e-08  
    0.23000     2.692e-11   -1.081e-09    4.413e-08  
    0.24000     2.062e-11   -8.252e-10    3.360e-08  
    0.25000     1.581e-11   -6.301e-10    2.559e-08  
    0.26000     1.213e-11   -4.815e-10    1.950e-08  
    0.27000     9.313e-12   -3.681e-10    1.487e-08  
    0.28000     7.158e-12   -2.815e-10    1.134e-08  
    0.29000     5.508e-12   -2.155e-10    8.654e-09  
    0.30000     4.244e-12   -1.650e-10    6.607e-09  
    0.31000     3.275e-12   -1.264e-10    5.047e-09  
    0.32000     2.531e-12   -9.692e-11    3.857e-09  
    0.33000     1.960e-12   -7.435e-11    2.950e-09  
    0.34000     1.522e-12   -5.707e-11    2.257e-09  
    0.35000     1.185e-12   -4.384e-11    1.728e-09  
    0.36000     9.258e-13   -3.369e-11    1.324e-09  
    0.37000     7.264e-13   -2.591e-11    1.014e-09  
    0.38000     5.728e-13   -1.995e-11    7.779e-10  
    0.39000     4.544e-13   -1.536e-11    5.970e-10  
    0.40000     3.630e-13   -1.184e-11    4.584e-10  
    0.41000     2.926e-13   -9.132e-12    3.522e-10  
    0.42000     2.381e-13   -7.049e-12    2.708e-10  
    0.43000     1.960e-13   -5.445e-12    2.083e-10  
    0.44000     1.634e-13   -4.209e-12    1.604e-10  
    0.45000     1.382e-13   -3.257e-12    1.236e-10  
    0.46000     1.187e-13   -2.522e-12    9.526e-11  
    0.47000     1.035e-13   -1.954e-12    7.349e-11  
    0.48000     9.175e-14   -1.516e-12    5.674e-11  
    0.49000     8.261e-14   -1.177e-12    4.384e-11  
    0.50000     7.549e-14   -9.146e-13    3.390e-11  
    0.51000     6.995e-14   -7.114e-13    2.624e-11  
    0.52000     6.564e-14   -5.539e-13    2.032e-11  
    0.53000     6.227e-14   -4.317e-13    1.575e-11  
    0.54000     5.964e-14   -3.368e-13    1.222e-11  
    0.55000     5.758e-14   -2.630e-13    9.490e-12  
    0.56000     5.597e-14   -2.056e-13    7.376e-12  
    0.57000     5.471e-14   -1.609e-13    5.738e-12  
    0.58000     5.372e-14   -1.261e-13    4.468e-12  
    0.59000     5.295e-14   -9.894e-14    3.483e-12  
    0.60000     5.233e-14   -7.771e-14    2.717e-12  
    0.61000     5.185e-14   -6.112e-14    2.122e-12  
    0.62000     5.147e-14   -4.813e-14    1.659e-12  
    0.63000     5.117e-14   -3.796e-14    1.299e-12  
    0.64000     5.094e-14   -2.997e-14    1.018e-12  
    0.65000     5.075e-14   -2.370e-14    7.984e-13  
    0.66000     5.060e-14   -1.877e-14    6.270e-13  
    0.67000     5.048e-14   -1.489e-14    4.931e-13  
    0.68000     5.039e-14   -1.183e-14    3.882e-13  
    0.69000     5.031e-14   -9.412e-15    3.061e-13  
    0.70000     5.025e-14   -7.502e-15    2.416e-13  
    0.71000     5.021e-14   -5.990e-15    1.910e-13  
    0.72000     5.017e-14   -4.792e-15    1.512e-13  
    0.73000     5.014e-14   -3.840e-15    1.198e-13  
    0.74000     5.011e-14   -3.084e-15    9.515e-14  
    0.75000     5.009e-14   -2.481e-15    7.566e-14  
    0.76000     5.008e-14   -2.001e-15    6.025e-14  
    0.77000     5.006e-14   -1.617e-15    4.807e-14  
    0.78000     5.005e-14   -1.309e-15    3.841e-14  
    0.79000     5.004e-14   -1.063e-15    3.074e-14  
    0.80000     5.004e-14   -8.647e-16    2.465e-14  
    0.81000     5.003e-14   -7.053e-16    1.980e-14  
    0.82000     5.003e-14   -5.769e-16    1.593e-14  
    0.83000     5.002e-14   -4.733e-16    1.284e-14  
    0.84000     5.002e-14   -3.895e-16    1.037e-14  
    0.85000     5.002e-14   -3.217e-16    8.378e-15  
    0.86000     5.001e-14   -2.669e-16    6.777e-15  
    0.87000     5.001e-14   -2.225e-16    5.485e-15  
    0.88000     5.001e-14   -1.864e-16    4.442e-15  
    0.89000     5.001e-14   -1.571e-16    3.603e-15  
    0.90000     5.001e-14   -1.332e-16    2.931e-15  
    0.91000     5.001e-14   -1.135e-16    2.396e-15  
    0.92000     5.001e-14   -9.727e-17    1.967e-15  
    0.93000     5.000e-14   -8.381e-17    1.622e-15  
    0.94000     5.000e-14   -7.250e-17    1.346e-15  
    0.95000     5.000e-14   -6.283e-17    1.131e-15  
    0.96000     5.000e-14   -5.444e-17    9.666e-16  
    0.97000     5.000e-14   -4.709e-17    8.394e-16  
    0.98000     5.000e-14   -4.064e-17    7.354e-16  
    0.99000     5.000e-14   -3.501e-17    6.448e-16  
    1.00000     5.000e-14   -3.013e-17    5.628e-16  
    1.01000     5.000e-14   -2.592e-17    4.881e-16  
    1.02000     5.000e-14   -2.231e-17    4.207e-16  
    1.03000     5.000e-14   -1.922e-17    3.610e-16  
    1.04000     5.000e-14   -1.659e-17    3.088e-16  
    1.05000     5.000e-14   -1.434e-17    2.637e-16  
    1.06000     5.000e-14   -1.242e-17    2.249e-16  
    1.07000     5.000e-14   -1.078e-17    1.917e-16  
    1.08000     5.000e-14   -9.388e-18    1.636e-16  
    1.09000     5.000e-14   -8.193e-18    1.397e-16  
    1.10000     5.000e-14   -7.170e-18    1.194e-16  
    1.11000     5.000e-14   -6.292e-18    1.023e-16  
    1.12000     5.000e-14   -5.536e-18    8.782e-17  
    1.13000     5.000e-14   -4.885e-18    7.555e-17  
    1.14000     5.000e-14   -4.322e-18    6.514e-17  
    1.15000     5.000e-14   -3.834e-18    5.631e-17  
    1.16000     5.000e-14   -3.410e-18    4.879e-17  
    1.17000     5.000e-14   -3.041e-18    4.239e-17  
    1.18000     5.000e-14   -2.718e-18    3.692e-17  
    1.19000     5.000e-14   -2.436e-18    3.224e-17  
    1.20000     5.000e-14   -2.188e-18    2.822e-17  
    1.21000     5.000e-14   -1.971e-18    2.477e-17  
    1.22000     5.000e-14   -1.778e-18    2.179e-17  
    1.23000     5.000e-14   -1.608e-18    1.922e-17  
    1.24000     5.000e-14   -1.458e-18    1.699e-17  
    1.25000     5.000e-14   -1.324e-18    1.505e-17  
    1.26000     5.000e-14   -1.205e-18    1.337e-17  
    1.27000     5.000e-14   -1.099e-18    1.190e-17  
    1.28000     5.000e-14   -1.004e-18    1.062e-17  
    1.29000     5.000e-14   -9.191e-19    9.492e-18  
    1.30000     5.000e-14   -8.428e-19    8.503e-18  
y
-----------------------------------------------
 ******  
 *sample netlist for bsim6.0

  ******  dc transfer curves tnom=  25.000 temp=  25.000 *****

   *** source        0:vb =   -0.3000        ***

x

        volt    param        param        param      
                    ids          gm           gm2    
   -1.30000     6.970e-06   -3.846e-14    6.483e-19  
   -1.29000     6.946e-06    6.970e-04   -3.846e-12  
   -1.28000     6.922e-06   -2.361e-06    6.970e-02  
   -1.27000     6.898e-06   -2.399e-06   -6.993e-02  
   -1.26000     6.873e-06   -2.437e-06   -3.763e-06  
   -1.25000     6.848e-06   -2.476e-06   -3.820e-06  
   -1.24000     6.822e-06   -2.515e-06   -3.878e-06  
   -1.23000     6.796e-06   -2.555e-06   -3.937e-06  
   -1.22000     6.770e-06   -2.596e-06   -3.997e-06  
   -1.21000     6.743e-06   -2.637e-06   -4.057e-06  
   -1.20000     6.716e-06   -2.679e-06   -4.119e-06  
   -1.19000     6.688e-06   -2.721e-06   -4.181e-06  
   -1.18000     6.660e-06   -2.764e-06   -4.244e-06  
   -1.17000     6.632e-06   -2.808e-06   -4.308e-06  
   -1.16000     6.603e-06   -2.852e-06   -4.373e-06  
   -1.15000     6.573e-06   -2.897e-06   -4.439e-06  
   -1.14000     6.544e-06   -2.943e-06   -4.505e-06  
   -1.13000     6.513e-06   -2.989e-06   -4.573e-06  
   -1.12000     6.482e-06   -3.036e-06   -4.642e-06  
   -1.11000     6.451e-06   -3.084e-06   -4.711e-06  
   -1.10000     6.419e-06   -3.133e-06   -4.781e-06  
   -1.09000     6.387e-06   -3.182e-06   -4.853e-06  
   -1.08000     6.354e-06   -3.232e-06   -4.925e-06  
   -1.07000     6.321e-06   -3.283e-06   -4.998e-06  
   -1.06000     6.287e-06   -3.334e-06   -5.072e-06  
   -1.05000     6.252e-06   -3.386e-06   -5.147e-06  
   -1.04000     6.218e-06   -3.439e-06   -5.222e-06  
   -1.03000     6.182e-06   -3.493e-06   -5.299e-06  
   -1.02000     6.146e-06   -3.548e-06   -5.376e-06  
   -1.01000     6.109e-06   -3.603e-06   -5.455e-06  
   -1.00000     6.072e-06   -3.659e-06   -5.534e-06  
   -0.99000     6.035e-06   -3.716e-06   -5.614e-06  
   -0.98000     5.996e-06   -3.774e-06   -5.695e-06  
   -0.97000     5.957e-06   -3.832e-06   -5.776e-06  
   -0.96000     5.918e-06   -3.892e-06   -5.858e-06  
   -0.95000     5.878e-06   -3.952e-06   -5.941e-06  
   -0.94000     5.837e-06   -4.013e-06   -6.025e-06  
   -0.93000     5.795e-06   -4.075e-06   -6.110e-06  
   -0.92000     5.753e-06   -4.138e-06   -6.195e-06  
   -0.91000     5.711e-06   -4.202e-06   -6.280e-06  
   -0.90000     5.667e-06   -4.266e-06   -6.367e-06  
   -0.89000     5.624e-06   -4.332e-06   -6.453e-06  
   -0.88000     5.579e-06   -4.398e-06   -6.541e-06  
   -0.87000     5.534e-06   -4.465e-06   -6.628e-06  
   -0.86000     5.488e-06   -4.533e-06   -6.716e-06  
   -0.85000     5.441e-06   -4.602e-06   -6.804e-06  
   -0.84000     5.393e-06   -4.672e-06   -6.893e-06  
   -0.83000     5.345e-06   -4.743e-06   -6.981e-06  
   -0.82000     5.296e-06   -4.814e-06   -7.070e-06  
   -0.81000     5.247e-06   -4.887e-06   -7.158e-06  
   -0.80000     5.196e-06   -4.960e-06   -7.247e-06  
   -0.79000     5.145e-06   -5.034e-06   -7.335e-06  
   -0.78000     5.093e-06   -5.109e-06   -7.423e-06  
   -0.77000     5.041e-06   -5.185e-06   -7.510e-06  
   -0.76000     4.987e-06   -5.262e-06   -7.596e-06  
   -0.75000     4.933e-06   -5.340e-06   -7.682e-06  
   -0.74000     4.878e-06   -5.418e-06   -7.767e-06  
   -0.73000     4.823e-06   -5.498e-06   -7.851e-06  
   -0.72000     4.766e-06   -5.578e-06   -7.933e-06  
   -0.71000     4.709e-06   -5.659e-06   -8.014e-06  
   -0.70000     4.650e-06   -5.740e-06   -8.093e-06  
   -0.69000     4.591e-06   -5.823e-06   -8.170e-06  
   -0.68000     4.531e-06   -5.906e-06   -8.245e-06  
   -0.67000     4.471e-06   -5.990e-06   -8.317e-06  
   -0.66000     4.409e-06   -6.074e-06   -8.387e-06  
   -0.65000     4.347e-06   -6.159e-06   -8.453e-06  
   -0.64000     4.283e-06   -6.245e-06   -8.516e-06  
   -0.63000     4.219e-06   -6.332e-06   -8.575e-06  
   -0.62000     4.154e-06   -6.418e-06   -8.630e-06  
   -0.61000     4.088e-06   -6.506e-06   -8.680e-06  
   -0.60000     4.021e-06   -6.593e-06   -8.724e-06  
   -0.59000     3.954e-06   -6.681e-06   -8.763e-06  
   -0.58000     3.885e-06   -6.769e-06   -8.796e-06  
   -0.57000     3.816e-06   -6.858e-06   -8.822e-06  
   -0.56000     3.745e-06   -6.946e-06   -8.840e-06  
   -0.55000     3.674e-06   -7.035e-06   -8.850e-06  
   -0.54000     3.602e-06   -7.123e-06   -8.851e-06  
   -0.53000     3.529e-06   -7.211e-06   -8.842e-06  
   -0.52000     3.455e-06   -7.299e-06   -8.822e-06  
   -0.51000     3.380e-06   -7.387e-06   -8.790e-06  
   -0.50000     3.305e-06   -7.474e-06   -8.745e-06  
   -0.49000     3.228e-06   -7.560e-06   -8.686e-06  
   -0.48000     3.151e-06   -7.645e-06   -8.611e-06  
   -0.47000     3.073e-06   -7.729e-06   -8.520e-06  
   -0.46000     2.994e-06   -7.812e-06   -8.410e-06  
   -0.45000     2.914e-06   -7.893e-06   -8.279e-06  
   -0.44000     2.834e-06   -7.973e-06   -8.126e-06  
   -0.43000     2.752e-06   -8.050e-06   -7.949e-06  
   -0.42000     2.670e-06   -8.125e-06   -7.745e-06  
   -0.41000     2.588e-06   -8.198e-06   -7.512e-06  
   -0.40000     2.504e-06   -8.267e-06   -7.247e-06  
   -0.39000     2.420e-06   -8.333e-06   -6.947e-06  
   -0.38000     2.336e-06   -8.395e-06   -6.607e-06  
   -0.37000     2.251e-06   -8.453e-06   -6.225e-06  
   -0.36000     2.165e-06   -8.507e-06   -5.796e-06  
   -0.35000     2.079e-06   -8.554e-06   -5.316e-06  
   -0.34000     1.993e-06   -8.596e-06   -4.777e-06  
   -0.33000     1.906e-06   -8.631e-06   -4.176e-06  
   -0.32000     1.820e-06   -8.659e-06   -3.505e-06  
   -0.31000     1.733e-06   -8.678e-06   -2.756e-06  
   -0.30000     1.646e-06   -8.688e-06   -1.922e-06  
   -0.29000     1.559e-06   -8.687e-06   -9.925e-07  
   -0.28000     1.473e-06   -8.675e-06    4.238e-08  
   -0.27000     1.387e-06   -8.651e-06    1.194e-06  
   -0.26000     1.301e-06   -8.612e-06    2.476e-06  
   -0.25000     1.216e-06   -8.557e-06    3.901e-06  
   -0.24000     1.132e-06   -8.484e-06    5.485e-06  
   -0.23000     1.049e-06   -8.392e-06    7.244e-06  
   -0.22000     9.680e-07   -8.279e-06    9.196e-06  
   -0.21000     8.882e-07   -8.141e-06    1.136e-05  
   -0.20000     8.103e-07   -7.978e-06    1.374e-05  
   -0.19000     7.347e-07   -7.786e-06    1.636e-05  
   -0.18000     6.617e-07   -7.562e-06    1.923e-05  
   -0.17000     5.915e-07   -7.306e-06    2.232e-05  
   -0.16000     5.246e-07   -7.015e-06    2.562e-05  
   -0.15000     4.613e-07   -6.689e-06    2.908e-05  
   -0.14000     4.020e-07   -6.328e-06    3.262e-05  
   -0.13000     3.470e-07   -5.932e-06    3.615e-05  
   -0.12000     2.964e-07   -5.506e-06    3.955e-05  
   -0.11000     2.506e-07   -5.053e-06    4.266e-05  
   -0.10000     2.097e-07   -4.580e-06    4.529e-05  
 -9.0000e-02    1.735e-07   -4.097e-06    4.723e-05  
 -8.0000e-02    1.421e-07   -3.614e-06    4.831e-05  
 -7.0000e-02    1.152e-07   -3.141e-06    4.835e-05  
 -6.0000e-02    9.253e-08   -2.689e-06    4.730e-05  
 -5.0000e-02    7.366e-08   -2.269e-06    4.516e-05  
 -4.0000e-02    5.818e-08   -1.887e-06    4.206e-05  
 -3.0000e-02    4.565e-08   -1.548e-06    3.821e-05  
 -2.0000e-02    3.560e-08   -1.254e-06    3.389e-05  
 -1.0000e-02    2.763e-08   -1.004e-06    2.938e-05  
    0.          2.136e-08   -7.969e-07    2.493e-05  
  1.0000e-02    1.646e-08   -6.269e-07    2.076e-05  
  2.0000e-02    1.266e-08   -4.898e-07    1.699e-05  
  3.0000e-02    9.715e-09   -3.806e-07    1.371e-05  
  4.0000e-02    7.446e-09   -2.944e-07    1.093e-05  
  5.0000e-02    5.702e-09   -2.269e-07    8.621e-06  
  6.0000e-02    4.364e-09   -1.744e-07    6.747e-06  
  7.0000e-02    3.339e-09   -1.338e-07    5.247e-06  
  8.0000e-02    2.554e-09   -1.025e-07    4.060e-06  
  9.0000e-02    1.954e-09   -7.847e-08    3.130e-06  
    0.10000     1.495e-09   -6.002e-08    2.405e-06  
    0.11000     1.144e-09   -4.589e-08    1.845e-06  
    0.12000     8.759e-10   -3.508e-08    1.413e-06  
    0.13000     6.709e-10   -2.682e-08    1.081e-06  
    0.14000     5.141e-10   -2.050e-08    8.263e-07  
    0.15000     3.941e-10   -1.568e-08    6.314e-07  
    0.16000     3.023e-10   -1.200e-08    4.824e-07  
    0.17000     2.320e-10   -9.180e-09    3.685e-07  
    0.18000     1.782e-10   -7.028e-09    2.816e-07  
    0.19000     1.369e-10   -5.383e-09    2.152e-07  
    0.20000     1.053e-10   -4.126e-09    1.645e-07  
    0.21000     8.104e-11   -3.163e-09    1.258e-07  
    0.22000     6.241e-11   -2.427e-09    9.622e-08  
    0.23000     4.810e-11   -1.863e-09    7.364e-08  
    0.24000     3.710e-11   -1.431e-09    5.639e-08  
    0.25000     2.864e-11   -1.100e-09    4.320e-08  
    0.26000     2.213e-11   -8.460e-10    3.311e-08  
    0.27000     1.711e-11   -6.511e-10    2.540e-08  
    0.28000     1.325e-11   -5.015e-10    1.949e-08  
    0.29000     1.027e-11   -3.865e-10    1.496e-08  
    0.30000     7.965e-12   -2.981e-10    1.150e-08  
    0.31000     6.188e-12   -2.301e-10    8.840e-09  
    0.32000     4.814e-12   -1.777e-10    6.801e-09  
    0.33000     3.751e-12   -1.374e-10    5.236e-09  
    0.34000     2.928e-12   -1.063e-10    4.033e-09  
    0.35000     2.290e-12   -8.230e-11    3.109e-09  
    0.36000     1.796e-12   -6.378e-11    2.399e-09  
    0.37000     1.412e-12   -4.947e-11    1.852e-09  
    0.38000     1.113e-12   -3.840e-11    1.431e-09  
    0.39000     8.813e-13   -2.984e-11    1.106e-09  
    0.40000     7.007e-13   -2.321e-11    8.562e-10  
    0.41000     5.599e-13   -1.807e-11    6.631e-10  
    0.42000     4.500e-13   -1.408e-11    5.140e-10  
    0.43000     3.642e-13   -1.098e-11    3.988e-10  
    0.44000     2.972e-13   -8.577e-12    3.096e-10  
    0.45000     2.447e-13   -6.705e-12    2.406e-10  
    0.46000     2.036e-13   -5.248e-12    1.872e-10  
    0.47000     1.713e-13   -4.112e-12    1.458e-10  
    0.48000     1.460e-13   -3.226e-12    1.136e-10  
    0.49000     1.261e-13   -2.534e-12    8.863e-11  
    0.50000     1.104e-13   -1.992e-12    6.922e-11  
    0.51000     9.801e-14   -1.569e-12    5.411e-11  
    0.52000     8.825e-14   -1.237e-12    4.235e-11  
    0.53000     8.052e-14   -9.768e-13    3.318e-11  
    0.54000     7.441e-14   -7.723e-13    2.603e-11  
    0.55000     6.956e-14   -6.116e-13    2.044e-11  
    0.56000     6.570e-14   -4.851e-13    1.607e-11  
    0.57000     6.264e-14   -3.853e-13    1.265e-11  
    0.58000     6.019e-14   -3.066e-13    9.975e-12  
    0.59000     5.824e-14   -2.443e-13    7.874e-12  
    0.60000     5.668e-14   -1.951e-13    6.223e-12  
    0.61000     5.543e-14   -1.560e-13    4.926e-12  
    0.62000     5.443e-14   -1.250e-13    3.905e-12  
    0.63000     5.362e-14   -1.004e-13    3.100e-12  
    0.64000     5.297e-14   -8.077e-14    2.465e-12  
    0.65000     5.244e-14   -6.511e-14    1.963e-12  
    0.66000     5.202e-14   -5.261e-14    1.565e-12  
    0.67000     5.167e-14   -4.260e-14    1.251e-12  
    0.68000     5.139e-14   -3.457e-14    1.001e-12  
    0.69000     5.116e-14   -2.813e-14    8.025e-13  
    0.70000     5.097e-14   -2.294e-14    6.445e-13  
    0.71000     5.082e-14   -1.876e-14    5.186e-13  
    0.72000     5.069e-14   -1.539e-14    4.179e-13  
    0.73000     5.059e-14   -1.266e-14    3.373e-13  
    0.74000     5.050e-14   -1.046e-14    2.726e-13  
    0.75000     5.043e-14   -8.671e-15    2.205e-13  
    0.76000     5.037e-14   -7.226e-15    1.785e-13  
    0.77000     5.032e-14   -6.054e-15    1.445e-13  
    0.78000     5.028e-14   -5.100e-15    1.172e-13  
    0.79000     5.024e-14   -4.321e-15    9.535e-14  
    0.80000     5.021e-14   -3.682e-15    7.791e-14  
    0.81000     5.018e-14   -3.155e-15    6.395e-14  
    0.82000     5.016e-14   -2.717e-15    5.271e-14  
    0.83000     5.014e-14   -2.350e-15    4.373e-14  
    0.84000     5.012e-14   -2.037e-15    3.671e-14  
    0.85000     5.010e-14   -1.765e-15    3.134e-14  
    0.86000     5.009e-14   -1.526e-15    2.720e-14  
    0.87000     5.008e-14   -1.318e-15    2.382e-14  
    0.88000     5.007e-14   -1.135e-15    2.089e-14  
    0.89000     5.006e-14   -9.770e-16    1.824e-14  
    0.90000     5.005e-14   -8.405e-16    1.582e-14  
    0.91000     5.005e-14   -7.234e-16    1.364e-14  
    0.92000     5.004e-14   -6.232e-16    1.171e-14  
    0.93000     5.004e-14   -5.377e-16    1.002e-14  
    0.94000     5.003e-14   -4.648e-16    8.553e-15  
    0.95000     5.003e-14   -4.026e-16    7.295e-15  
    0.96000     5.003e-14   -3.495e-16    6.220e-15  
    0.97000     5.002e-14   -3.042e-16    5.306e-15  
    0.98000     5.002e-14   -2.654e-16    4.531e-15  
    0.99000     5.002e-14   -2.323e-16    3.874e-15  
    1.00000     5.002e-14   -2.038e-16    3.318e-15  
    1.01000     5.002e-14   -1.793e-16    2.848e-15  
    1.02000     5.001e-14   -1.582e-16    2.450e-15  
    1.03000     5.001e-14   -1.399e-16    2.112e-15  
    1.04000     5.001e-14   -1.241e-16    1.825e-15  
    1.05000     5.001e-14   -1.104e-16    1.581e-15  
    1.06000     5.001e-14   -9.840e-17    1.374e-15  
    1.07000     5.001e-14   -8.795e-17    1.196e-15  
    1.08000     5.001e-14   -7.881e-17    1.044e-15  
    1.09000     5.001e-14   -7.079e-17    9.142e-16  
    1.10000     5.001e-14   -6.373e-17    8.022e-16  
    1.11000     5.001e-14   -5.751e-17    7.057e-16  
    1.12000     5.001e-14   -5.201e-17    6.223e-16  
    1.13000     5.001e-14   -4.714e-17    5.500e-16  
    1.14000     5.001e-14   -4.281e-17    4.873e-16  
    1.15000     5.001e-14   -3.896e-17    4.328e-16  
    1.16000     5.000e-14   -3.552e-17    3.852e-16  
    1.17000     5.000e-14   -3.245e-17    3.436e-16  
    1.18000     5.000e-14   -2.970e-17    3.071e-16  
    1.19000     5.000e-14   -2.723e-17    2.751e-16  
    1.20000     5.000e-14   -2.501e-17    2.469e-16  
    1.21000     5.000e-14   -2.301e-17    2.220e-16  
    1.22000     5.000e-14   -2.120e-17    2.001e-16  
    1.23000     5.000e-14   -1.957e-17    1.806e-16  
    1.24000     5.000e-14   -1.809e-17    1.634e-16  
    1.25000     5.000e-14   -1.675e-17    1.480e-16  
    1.26000     5.000e-14   -1.552e-17    1.343e-16  
    1.27000     5.000e-14   -1.441e-17    1.221e-16  
    1.28000     5.000e-14   -1.340e-17    1.112e-16  
    1.29000     5.000e-14   -1.247e-17    1.014e-16  
    1.30000     5.000e-14   -1.163e-17    9.263e-17  
y
-----------------------------------------------

          ***** job concluded
1****** HSPICE -- G-2012.06 32-BIT (May 27 2012) RHEL32 ******                  
 ******  
 *sample netlist for bsim6.0

  ******  job statistics summary tnom=  25.000 temp=  25.000 *****
  
  
 ******  Machine Information  ******
 CPU:
 model name	: AMD Opteron(tm) Processor 248
 cpu MHz	: 2200.023
  
 OS:
 Linux version 2.6.9-22.EL (bhcompile@crowe.devel.redhat.com) (gcc version 3.4.4 20050721 (Red Hat 3.4.4-2)) #1 Mon Sep 19 17:49:49 EDT 2005


  ******  HSPICE Threads Information  ******

  Command Line Threads Count :     1
  Available CPU Count        :     1
  Actual Threads Count       :     1


  ******  Circuit Statistics  ******
  # nodes       =      14 # elements   =       5
  # resistors   =       0 # capacitors =       0 # inductors   =       0
  # mutual_inds =       0 # vccs       =       0 # vcvs        =       0
  # cccs        =       0 # ccvs       =       0 # volt_srcs   =       4
  # curr_srcs   =       0 # diodes     =       0 # bjts        =       0
  # jfets       =       0 # mosfets    =       0 # U elements  =       0
  # T elements  =       0 # W elements =       0 # B elements  =       0
  # S elements  =       0 # P elements =       0 # va device   =       1
  # vector_srcs =       0 # N elements =       0


  ******  Runtime Statistics (seconds)  ******

  analysis           time    # points   tot. iter  conv.iter
  op point           0.00           1           0
  dc sweep           0.21        1044        2096
  readin             2.66
  errchk             0.04
  setup              0.00
  output             0.00


           peak memory used        112.89 megabytes
           total cpu time            2.91 seconds
           total elapsed time       12.27 seconds
           job started at     21:45:25 05/05/2013
           job ended   at     21:45:37 05/05/2013


 lic: Release hspice token(s) 
 lic: total license checkout elapse time:        0.20(s)


pVA concluded on Sun May  5 21:45:37 2013

