Using: /cad/synopsys/Hspice/G-2012.06/hspice/linux/hspice inverter_transient.sp
 ****** HSPICE -- G-2012.06 32-BIT (May 27 2012) RHEL32 ******                  
  Copyright (C) 2012 Synopsys, Inc. All Rights Reserved.                        
  Unpublished-rights reserved under US copyright laws.
  This program is protected by law and is subject to the
  terms and conditions of the license agreement from Synopsys.
  Use of this program is your acceptance to be bound by the
  license agreement. HSPICE is the trademark of Synopsys, Inc.
  Input File: inverter_transient.sp                                             
  Command line options: inverter_transient.sp
 lic: No 'setenv LM_LICENSE_FILE' in current environment' 
 lic:  
 lic: FLEXlm: v10.8 
 lic: USER:   agarwalh             HOSTNAME: xcel1.vlsi.iitk.ac.in 
 lic: HOSTID: 0008a1953eea         PID:      1558 
 lic: Using FLEXlm license file: 
 lic: 27000@xcel0 
 lic: Checkout 1 hspice 
 lic: License/Maintenance for hspice will expire on 15-jun-2013/2011.09 
 lic: 1(in_use)/5(total) FLOATING license(s) on SERVER xcel0 
 lic:   
 Init: read install configuration file: /cad/synopsys/Hspice/G-2012.06/hspice/meta.cfg


 --------------------------------------------------------
|                                                        |
|          Synopsys Unified Verilog-A (pVA v2.0)         |
|                                                        |
|           Machine Name: xcel1.vlsi.iitk.ac.in          |
| Copyright (c) 2011 Synopsys Inc., All Rights Reserved. |
|                                                        |
 --------------------------------------------------------

libepva built by pvamgr synmake_pva_build  on Tue May  1 20:03:16 PDT 2012
HSP_HOME:   /cad/synopsys/Hspice/G-2012.06/hspice
HSP_ARCH:   linux
HSP_GCC :   /cad/synopsys/Hspice/G-2012.06/hspice/GNU/amd64/gcc-4.5.2-static/bin/gcc -m32 
HSP_GCC_VER:   4.5.2
Working-Dir: /users/phd/agarwalh/synopsys_designs/BSIM6/QA/BSIM6 Release/Release_5_May
Args:        -p hsp -t spi -f inverter_transient.pvadir/pvaHDL.lis -o inverter_transient.pvadir 


Begin of pVA compiling on Sun May  5 21:47:41 2013

Parsing './bsim6.va'
Parsing include file '/cad/synopsys/Hspice/G-2012.06/hspice/include/constants.vams'
Parsing include file '/cad/synopsys/Hspice/G-2012.06/hspice/include/disciplines.vams'

End of pVA compiling on Sun May  5 21:47:41 2013


End of build pVA DB on Sun May  5 21:47:41 2013

*pvaI* Module (bsim6): 4 unexpanded port, 0 init, 2191 behav, 65 contrib, 43/2272 expr(s)
*pvaI* Resizing DB size for v count = 1
*pvaI*        Has DIS (SB), 3 afCount
*pvaI*        0 const-G and 0 const-C, Has switch branch.
*pvaI* Module (bsim6): generated 7 flow node(s) during compilation.

End of pVA genC on Sun May  5 21:47:43 2013

*pvaI* #### Total 316 line-size(s), 43 expr(s), 65 contr(s), 0 init(s), 2191 behav(s), 4 port(s)

Generating inverter_transient.pvadir/pvaRTL_linux.so


End of submitting pVA inverter_transient.pvadir/pvaRTL.mak on Sun May  5 21:47:53 2013


End of pVA elaboration on Sun May  5 21:47:53 2013

  **warning** (inverter_transient.sp:14) Global net name, "gnd", in subckt pin list. The pin will be connected to the local net. Recommend to not use global net names in subckt pin lists.
 Loading pVA library inverter_transient.pvadir/pvaRTL_linux.so...
1****** HSPICE -- G-2012.06 32-BIT (May 27 2012) RHEL32 ******                  
 ******  
 *sample netlist for bsim6.0

  ******  circuit name directory
 circuit number to circuit name directory
   number circuitname                     definition         multiplier
        0 main circuit
        1 xinv1.                          inverter           1.00 
        2 xinv2.                          inverter           1.00 
        3 xinv3.                          inverter           1.00 
        4 xinv4.                          inverter           1.00 
        5 xinv5.                          inverter           1.00 
        6 xinv1.xp1.                      bsim6(va)          1.00 
        7 xinv1.xn1.                      bsim6(va)          1.00 
        8 xinv2.xp1.                      bsim6(va)          1.00 
        9 xinv2.xn1.                      bsim6(va)          1.00 
       10 xinv3.xp1.                      bsim6(va)          1.00 
       11 xinv3.xn1.                      bsim6(va)          1.00 
       12 xinv4.xp1.                      bsim6(va)          1.00 
       13 xinv4.xn1.                      bsim6(va)          1.00 
       14 xinv5.xp1.                      bsim6(va)          1.00 
       15 xinv5.xn1.                      bsim6(va)          1.00 
*pvaI* Creating Verilog-A module 'bsim6' for XINV5.XN1
*pvaI* Creating Verilog-A module 'bsim6' for XINV5.XP1
  
      
 *****************************************************************
 ******  option summary
 ******
 runlvl  = 3         bypass  = 2         
  Opening plot unit= 15
 file=inverter_transient.pa0                                                   

1****** HSPICE -- G-2012.06 32-BIT (May 27 2012) RHEL32 ******                  
 ******  
 *sample netlist for bsim6.0

  ******  operating point information tnom=  25.000 temp=  25.000 *****
 ***** operating point status is voltage   simulation time is     0.     
     node    =voltage       node    =voltage       node    =voltage

 + 0:1       =   0.1692   0:2       =   0.9906   0:3       = 8.091e-03
 + 0:4       =   0.9998   0:supply  =   1.0000   0:vi      =   0.5000 
 + 0:vo      = 7.606e-03

 ******  
 *sample netlist for bsim6.0

  ******  transient analysis tnom=  25.000 temp=  25.000 *****
x

        time    voltage      voltage    
                    vi           vo     
    0.            0.5000     7.606e-03  
  1.0000e-08      0.5314     7.584e-03  
  2.0000e-08      0.5626     7.605e-03  
  3.0000e-08      0.5935     7.625e-03  
  4.0000e-08      0.6237     7.619e-03  
  5.0000e-08      0.6540     7.614e-03  
  6.0000e-08      0.6839     7.608e-03  
  7.0000e-08      0.7120     7.599e-03  
  8.0000e-08      0.7401     7.589e-03  
  9.0000e-08      0.7673     7.583e-03  
  1.0000e-07      0.7909     7.591e-03  
  1.1000e-07      0.8146     7.599e-03  
  1.2000e-07      0.8383     7.607e-03  
  1.3000e-07      0.8620     7.615e-03  
  1.4000e-07      0.8852     7.621e-03  
  1.5000e-07      0.9045     7.605e-03  
  1.6000e-07      0.9215     7.608e-03  
  1.7000e-07      0.9377     7.609e-03  
  1.8000e-07      0.9510     7.609e-03  
  1.9000e-07      0.9643     7.608e-03  
  2.0000e-07      0.9722     7.608e-03  
  2.1000e-07      0.9777     7.607e-03  
  2.2000e-07      0.9833     7.607e-03  
  2.3000e-07      0.9889     7.607e-03  
  2.4000e-07      0.9944     7.606e-03  
  2.5000e-07      1.0000     7.606e-03  
  2.6000e-07      0.9951     7.606e-03  
  2.7000e-07      0.9902     7.606e-03  
  2.8000e-07      0.9853     7.606e-03  
  2.9000e-07      0.9804     7.606e-03  
  3.0000e-07      0.9755     7.606e-03  
  3.1000e-07      0.9637     7.606e-03  
  3.2000e-07      0.9519     7.605e-03  
  3.3000e-07      0.9369     7.606e-03  
  3.4000e-07      0.9207     7.607e-03  
  3.5000e-07      0.9045     7.608e-03  
  3.6000e-07      0.8828     7.607e-03  
  3.7000e-07      0.8611     7.607e-03  
  3.8000e-07      0.8395     7.606e-03  
  3.9000e-07      0.8178     7.605e-03  
  4.0000e-07      0.7932     7.605e-03  
  4.1000e-07      0.7671     7.606e-03  
  4.2000e-07      0.7406     7.606e-03  
  4.3000e-07      0.7106     7.606e-03  
  4.4000e-07      0.6805     7.606e-03  
  4.5000e-07      0.6504     7.606e-03  
  4.6000e-07      0.6203     7.606e-03  
  4.7000e-07      0.5902     7.606e-03  
  4.8000e-07      0.5602     7.605e-03  
  4.9000e-07      0.5301     7.605e-03  
  5.0000e-07      0.5000     7.605e-03  
  5.1000e-07      0.4689     7.605e-03  
  5.2000e-07      0.4377     7.605e-03  
  5.3000e-07      0.4066     7.605e-03  
  5.4000e-07      0.3757     7.587e-03  
  5.5000e-07      0.3458     7.554e-03  
  5.6000e-07      0.3169     7.568e-03  
  5.7000e-07      0.2880     7.583e-03  
  5.8000e-07      0.2592     7.597e-03  
  5.9000e-07      0.2328     8.871e-03  
  6.0000e-07      0.2066     1.018e-02  
  6.1000e-07      0.1820     7.196e-03  
  6.2000e-07      0.1586     1.064e-03  
  6.3000e-07      0.1357    -9.151e-03  
  6.4000e-07      0.1152    -3.604e-02  
  6.5000e-07    9.549e-02   -6.283e-02  
  6.6000e-07    7.785e-02      0.5998   
  6.7000e-07    6.192e-02      0.8715   
  6.8000e-07    4.770e-02      0.9555   
  6.9000e-07    3.525e-02      0.9838   
  7.0000e-07    2.483e-02      0.9933   
  7.1000e-07    1.638e-02      0.9972   
  7.2000e-07    9.369e-03      0.9985   
  7.3000e-07    5.221e-03      0.9991   
  7.4000e-07    2.610e-03      0.9994   
  7.5000e-07      0.           0.9996   
  7.6000e-07    2.290e-03      0.9996   
  7.7000e-07    4.580e-03      0.9997   
  7.8000e-07    9.903e-03      0.9997   
  7.9000e-07    1.668e-02      0.9998   
  8.0000e-07    2.626e-02      0.9998   
  8.1000e-07    4.010e-02      0.9998   
  8.2000e-07    5.395e-02      0.9998   
  8.3000e-07    6.780e-02      0.9998   
  8.4000e-07    8.164e-02      0.9998   
  8.5000e-07    9.549e-02      0.9998   
  8.6000e-07      0.1184       0.9998   
  8.7000e-07      0.1412       0.9998   
  8.8000e-07      0.1641       0.9998   
  8.9000e-07      0.1870       0.9998   
  9.0000e-07      0.2099       0.9998   
  9.1000e-07      0.2327       0.9998   
  9.2000e-07      0.2597       0.9998   
  9.3000e-07      0.2876       0.9998   
  9.4000e-07      0.3166       0.9998   
  9.5000e-07      0.3472       0.9998   
  9.6000e-07      0.3777       0.9998   
  9.7000e-07      0.4083       0.9998   
  9.8000e-07      0.4389       0.9998   
  9.9000e-07      0.4694       0.9998   
  1.0000e-06      0.5000       0.9998   
  1.0100e-06      0.5313       0.9998   
  1.0200e-06      0.5625       0.9999   
  1.0300e-06      0.5937       0.9999   
  1.0400e-06      0.6241       0.9999   
  1.0500e-06      0.6540       0.9998   
  1.0600e-06      0.6839       0.9998   
  1.0700e-06      0.7126       0.9969   
  1.0800e-06      0.7408       0.9933   
  1.0900e-06      0.7676       0.9911   
  1.1000e-06      0.7936       1.0189   
  1.1100e-06      0.8186       1.0751   
  1.1200e-06      0.8420       1.0440   
  1.1300e-06      0.8642       0.6772   
  1.1400e-06      0.8851       0.1854   
  1.1500e-06      0.9045     8.616e-02  
  1.1600e-06      0.9221     5.039e-02  
  1.1700e-06      0.9378     3.462e-02  
  1.1800e-06      0.9517     2.504e-02  
  1.1900e-06      0.9643     1.796e-02  
  1.2000e-06      0.9746     1.485e-02  
  1.2100e-06      0.9835     1.224e-02  
  1.2200e-06      0.9886     1.094e-02  
  1.2300e-06      0.9936     9.633e-03  
  1.2400e-06      0.9987     8.328e-03  
  1.2500e-06      1.0000     8.430e-03  
  1.2600e-06      0.9986     8.146e-03  
  1.2700e-06      0.9951     7.952e-03  
  1.2800e-06      0.9900     7.833e-03  
  1.2900e-06      0.9828     7.739e-03  
  1.3000e-06      0.9698     7.716e-03  
  1.3100e-06      0.9567     7.693e-03  
  1.3200e-06      0.9437     7.670e-03  
  1.3300e-06      0.9306     7.646e-03  
  1.3400e-06      0.9176     7.623e-03  
  1.3500e-06      0.9045     7.600e-03  
  1.3600e-06      0.8819     7.600e-03  
  1.3700e-06      0.8592     7.600e-03  
  1.3800e-06      0.8366     7.600e-03  
  1.3900e-06      0.8140     7.601e-03  
  1.4000e-06      0.7914     7.601e-03  
  1.4100e-06      0.7677     7.601e-03  
  1.4200e-06      0.7402     7.602e-03  
  1.4300e-06      0.7127     7.604e-03  
  1.4400e-06      0.6828     7.604e-03  
  1.4500e-06      0.6523     7.604e-03  
  1.4600e-06      0.6219     7.605e-03  
  1.4700e-06      0.5914     7.605e-03  
  1.4800e-06      0.5609     7.605e-03  
  1.4900e-06      0.5305     7.605e-03  
  1.5000e-06      0.5000     7.606e-03  
  1.5100e-06      0.4688     7.605e-03  
  1.5200e-06      0.4377     7.605e-03  
  1.5300e-06      0.4065     7.605e-03  
  1.5400e-06      0.3757     7.584e-03  
  1.5500e-06      0.3459     7.560e-03  
  1.5600e-06      0.3169     7.564e-03  
  1.5700e-06      0.2878     7.569e-03  
  1.5800e-06      0.2594     7.743e-03  
  1.5900e-06      0.2329     8.484e-03  
  1.6000e-06      0.2064     9.224e-03  
  1.6100e-06      0.1823     6.761e-03  
  1.6200e-06      0.1590     3.156e-03  
  1.6300e-06      0.1357    -4.493e-04  
  1.6400e-06      0.1154    -2.668e-02  
  1.6500e-06    9.549e-02   -5.556e-02  
  1.6600e-06    7.786e-02      0.2177   
  1.6700e-06    6.186e-02      0.8332   
  1.6800e-06    4.765e-02      0.9440   
  1.6900e-06    3.534e-02      0.9784   
  1.7000e-06    2.479e-02      0.9919   
  1.7100e-06    1.581e-02      0.9970   
  1.7200e-06    9.822e-03      0.9981   
  1.7300e-06    4.048e-03      0.9992   
  1.7400e-06    2.024e-03      0.9993   
  1.7500e-06      0.           0.9995   
  1.7600e-06    2.410e-03      0.9996   
  1.7700e-06    4.819e-03      0.9997   
  1.7800e-06    9.778e-03      0.9997   
  1.7900e-06    1.679e-02      0.9997   
  1.8000e-06    2.571e-02      0.9998   
  1.8100e-06    3.966e-02      0.9998   
  1.8200e-06    5.362e-02      0.9998   
  1.8300e-06    6.758e-02      0.9998   
  1.8400e-06    8.153e-02      0.9998   
  1.8500e-06    9.549e-02      0.9998   
  1.8600e-06      0.1183       0.9998   
  1.8700e-06      0.1412       0.9998   
  1.8800e-06      0.1640       0.9998   
  1.8900e-06      0.1869       0.9998   
  1.9000e-06      0.2097       0.9998   
  1.9100e-06      0.2326       0.9998   
  1.9200e-06      0.2597       0.9998   
  1.9300e-06      0.2875       0.9998   
  1.9400e-06      0.3167       0.9998   
  1.9500e-06      0.3472       0.9998   
  1.9600e-06      0.3778       0.9998   
  1.9700e-06      0.4083       0.9998   
  1.9800e-06      0.4389       0.9998   
  1.9900e-06      0.4694       0.9998   
  2.0000e-06      0.5000       0.9998   
  2.0100e-06      0.5313       0.9998   
  2.0200e-06      0.5625       0.9999   
  2.0300e-06      0.5937       0.9999   
  2.0400e-06      0.6241       0.9999   
  2.0500e-06      0.6540       0.9998   
  2.0600e-06      0.6839       0.9998   
  2.0700e-06      0.7126       0.9969   
  2.0800e-06      0.7408       0.9933   
  2.0900e-06      0.7676       0.9911   
  2.1000e-06      0.7936       1.0187   
  2.1100e-06      0.8186       1.0753   
  2.1200e-06      0.8420       1.0437   
  2.1300e-06      0.8642       0.6777   
  2.1400e-06      0.8851       0.1846   
  2.1500e-06      0.9045     8.595e-02  
  2.1600e-06      0.9221     5.037e-02  
  2.1700e-06      0.9378     3.464e-02  
  2.1800e-06      0.9517     2.498e-02  
  2.1900e-06      0.9642     1.797e-02  
  2.2000e-06      0.9746     1.484e-02  
  2.2100e-06      0.9834     1.225e-02  
  2.2200e-06      0.9885     1.094e-02  
  2.2300e-06      0.9937     9.620e-03  
  2.2400e-06      0.9988     8.304e-03  
  2.2500e-06      1.0000     8.433e-03  
  2.2600e-06      0.9985     8.152e-03  
  2.2700e-06      0.9952     7.954e-03  
  2.2800e-06      0.9900     7.835e-03  
  2.2900e-06      0.9830     7.738e-03  
  2.3000e-06      0.9699     7.716e-03  
  2.3100e-06      0.9569     7.693e-03  
  2.3200e-06      0.9438     7.670e-03  
  2.3300e-06      0.9307     7.647e-03  
  2.3400e-06      0.9176     7.624e-03  
  2.3500e-06      0.9045     7.601e-03  
  2.3600e-06      0.8819     7.601e-03  
  2.3700e-06      0.8593     7.601e-03  
  2.3800e-06      0.8367     7.601e-03  
  2.3900e-06      0.8140     7.601e-03  
  2.4000e-06      0.7914     7.601e-03  
  2.4100e-06      0.7677     7.601e-03  
  2.4200e-06      0.7402     7.603e-03  
  2.4300e-06      0.7127     7.604e-03  
  2.4400e-06      0.6828     7.604e-03  
  2.4500e-06      0.6523     7.605e-03  
  2.4600e-06      0.6219     7.605e-03  
  2.4700e-06      0.5914     7.605e-03  
  2.4800e-06      0.5609     7.605e-03  
  2.4900e-06      0.5305     7.605e-03  
  2.5000e-06      0.5000     7.606e-03  
  2.5100e-06      0.4688     7.605e-03  
  2.5200e-06      0.4377     7.605e-03  
  2.5300e-06      0.4065     7.605e-03  
  2.5400e-06      0.3757     7.584e-03  
  2.5500e-06      0.3459     7.560e-03  
  2.5600e-06      0.3169     7.564e-03  
  2.5700e-06      0.2878     7.569e-03  
  2.5800e-06      0.2594     7.742e-03  
  2.5900e-06      0.2329     8.490e-03  
  2.6000e-06      0.2064     9.237e-03  
  2.6100e-06      0.1823     6.756e-03  
  2.6200e-06      0.1590     3.109e-03  
  2.6300e-06      0.1357    -5.381e-04  
  2.6400e-06      0.1154    -2.662e-02  
  2.6500e-06    9.549e-02   -5.563e-02  
  2.6600e-06    7.786e-02      0.2158   
  2.6700e-06    6.186e-02      0.8330   
  2.6800e-06    4.766e-02      0.9440   
  2.6900e-06    3.534e-02      0.9784   
  2.7000e-06    2.479e-02      0.9919   
  2.7100e-06    1.582e-02      0.9970   
  2.7200e-06    9.819e-03      0.9981   
  2.7300e-06    4.064e-03      0.9992   
  2.7400e-06    2.032e-03      0.9993   
  2.7500e-06      0.           0.9995   
  2.7600e-06    2.406e-03      0.9996   
  2.7700e-06    4.812e-03      0.9997   
  2.7800e-06    9.782e-03      0.9997   
  2.7900e-06    1.679e-02      0.9997   
  2.8000e-06    2.572e-02      0.9998   
  2.8100e-06    3.968e-02      0.9998   
  2.8200e-06    5.363e-02      0.9998   
  2.8300e-06    6.758e-02      0.9998   
  2.8400e-06    8.154e-02      0.9998   
  2.8500e-06    9.549e-02      0.9998   
  2.8600e-06      0.1183       0.9998   
  2.8700e-06      0.1412       0.9998   
  2.8800e-06      0.1640       0.9998   
  2.8900e-06      0.1869       0.9998   
  2.9000e-06      0.2097       0.9998   
  2.9100e-06      0.2326       0.9998   
  2.9200e-06      0.2597       0.9998   
  2.9300e-06      0.2875       0.9998   
  2.9400e-06      0.3167       0.9998   
  2.9500e-06      0.3472       0.9998   
  2.9600e-06      0.3778       0.9998   
  2.9700e-06      0.4083       0.9998   
  2.9800e-06      0.4389       0.9998   
  2.9900e-06      0.4694       0.9998   
  3.0000e-06      0.5000       0.9998   
  3.0100e-06      0.5313       0.9998   
  3.0200e-06      0.5625       0.9999   
  3.0300e-06      0.5937       0.9999   
  3.0400e-06      0.6241       0.9999   
  3.0500e-06      0.6540       0.9998   
  3.0600e-06      0.6839       0.9998   
  3.0700e-06      0.7126       0.9969   
  3.0800e-06      0.7408       0.9933   
  3.0900e-06      0.7676       0.9911   
  3.1000e-06      0.7936       1.0187   
  3.1100e-06      0.8186       1.0753   
  3.1200e-06      0.8420       1.0437   
  3.1300e-06      0.8642       0.6777   
  3.1400e-06      0.8851       0.1846   
  3.1500e-06      0.9045     8.596e-02  
  3.1600e-06      0.9221     5.037e-02  
  3.1700e-06      0.9378     3.464e-02  
  3.1800e-06      0.9517     2.498e-02  
  3.1900e-06      0.9642     1.797e-02  
  3.2000e-06      0.9746     1.484e-02  
  3.2100e-06      0.9834     1.225e-02  
  3.2200e-06      0.9885     1.094e-02  
  3.2300e-06      0.9937     9.621e-03  
  3.2400e-06      0.9988     8.305e-03  
  3.2500e-06      1.0000     8.433e-03  
  3.2600e-06      0.9985     8.152e-03  
  3.2700e-06      0.9952     7.954e-03  
  3.2800e-06      0.9900     7.835e-03  
  3.2900e-06      0.9830     7.739e-03  
  3.3000e-06      0.9699     7.716e-03  
  3.3100e-06      0.9569     7.693e-03  
  3.3200e-06      0.9438     7.670e-03  
  3.3300e-06      0.9307     7.647e-03  
  3.3400e-06      0.9176     7.624e-03  
  3.3500e-06      0.9045     7.601e-03  
  3.3600e-06      0.8819     7.601e-03  
  3.3700e-06      0.8593     7.601e-03  
  3.3800e-06      0.8367     7.601e-03  
  3.3900e-06      0.8140     7.601e-03  
  3.4000e-06      0.7914     7.601e-03  
  3.4100e-06      0.7677     7.601e-03  
  3.4200e-06      0.7402     7.603e-03  
  3.4300e-06      0.7127     7.604e-03  
  3.4400e-06      0.6828     7.604e-03  
  3.4500e-06      0.6523     7.605e-03  
  3.4600e-06      0.6219     7.605e-03  
  3.4700e-06      0.5914     7.605e-03  
  3.4800e-06      0.5609     7.605e-03  
  3.4900e-06      0.5305     7.605e-03  
  3.5000e-06      0.5000     7.606e-03  
  3.5100e-06      0.4688     7.605e-03  
  3.5200e-06      0.4377     7.605e-03  
  3.5300e-06      0.4065     7.605e-03  
  3.5400e-06      0.3757     7.584e-03  
  3.5500e-06      0.3459     7.560e-03  
  3.5600e-06      0.3169     7.564e-03  
  3.5700e-06      0.2878     7.569e-03  
  3.5800e-06      0.2594     7.742e-03  
  3.5900e-06      0.2329     8.489e-03  
  3.6000e-06      0.2064     9.237e-03  
  3.6100e-06      0.1823     6.756e-03  
  3.6200e-06      0.1590     3.110e-03  
  3.6300e-06      0.1357    -5.362e-04  
  3.6400e-06      0.1154    -2.663e-02  
  3.6500e-06    9.549e-02   -5.563e-02  
  3.6600e-06    7.786e-02      0.2159   
  3.6700e-06    6.186e-02      0.8330   
  3.6800e-06    4.766e-02      0.9440   
  3.6900e-06    3.534e-02      0.9784   
  3.7000e-06    2.479e-02      0.9919   
  3.7100e-06    1.582e-02      0.9970   
  3.7200e-06    9.819e-03      0.9981   
  3.7300e-06    4.063e-03      0.9992   
  3.7400e-06    2.032e-03      0.9993   
  3.7500e-06      0.           0.9995   
  3.7600e-06    2.406e-03      0.9996   
  3.7700e-06    4.812e-03      0.9997   
  3.7800e-06    9.782e-03      0.9997   
  3.7900e-06    1.679e-02      0.9997   
  3.8000e-06    2.572e-02      0.9998   
  3.8100e-06    3.968e-02      0.9998   
  3.8200e-06    5.363e-02      0.9998   
  3.8300e-06    6.758e-02      0.9998   
  3.8400e-06    8.154e-02      0.9998   
  3.8500e-06    9.549e-02      0.9998   
  3.8600e-06      0.1183       0.9998   
  3.8700e-06      0.1412       0.9998   
  3.8800e-06      0.1640       0.9998   
  3.8900e-06      0.1869       0.9998   
  3.9000e-06      0.2097       0.9998   
  3.9100e-06      0.2326       0.9998   
  3.9200e-06      0.2597       0.9998   
  3.9300e-06      0.2875       0.9998   
  3.9400e-06      0.3167       0.9998   
  3.9500e-06      0.3472       0.9998   
  3.9600e-06      0.3778       0.9998   
  3.9700e-06      0.4083       0.9998   
  3.9800e-06      0.4389       0.9998   
  3.9900e-06      0.4694       0.9998   
  4.0000e-06      0.5000       0.9998   
  4.0100e-06      0.5313       0.9998   
  4.0200e-06      0.5625       0.9999   
  4.0300e-06      0.5937       0.9999   
  4.0400e-06      0.6241       0.9999   
  4.0500e-06      0.6540       0.9998   
  4.0600e-06      0.6839       0.9998   
  4.0700e-06      0.7126       0.9969   
  4.0800e-06      0.7408       0.9933   
  4.0900e-06      0.7676       0.9911   
  4.1000e-06      0.7936       1.0187   
  4.1100e-06      0.8186       1.0753   
  4.1200e-06      0.8420       1.0437   
  4.1300e-06      0.8642       0.6777   
  4.1400e-06      0.8851       0.1846   
  4.1500e-06      0.9045     8.596e-02  
  4.1600e-06      0.9221     5.037e-02  
  4.1700e-06      0.9378     3.464e-02  
  4.1800e-06      0.9517     2.498e-02  
  4.1900e-06      0.9642     1.797e-02  
  4.2000e-06      0.9746     1.484e-02  
  4.2100e-06      0.9834     1.225e-02  
  4.2200e-06      0.9885     1.094e-02  
  4.2300e-06      0.9937     9.621e-03  
  4.2400e-06      0.9988     8.305e-03  
  4.2500e-06      1.0000     8.433e-03  
  4.2600e-06      0.9985     8.152e-03  
  4.2700e-06      0.9952     7.954e-03  
  4.2800e-06      0.9900     7.835e-03  
  4.2900e-06      0.9830     7.739e-03  
  4.3000e-06      0.9699     7.716e-03  
  4.3100e-06      0.9569     7.693e-03  
  4.3200e-06      0.9438     7.670e-03  
  4.3300e-06      0.9307     7.647e-03  
  4.3400e-06      0.9176     7.624e-03  
  4.3500e-06      0.9045     7.601e-03  
  4.3600e-06      0.8819     7.601e-03  
  4.3700e-06      0.8593     7.601e-03  
  4.3800e-06      0.8367     7.601e-03  
  4.3900e-06      0.8140     7.601e-03  
  4.4000e-06      0.7914     7.601e-03  
  4.4100e-06      0.7677     7.601e-03  
  4.4200e-06      0.7402     7.603e-03  
  4.4300e-06      0.7127     7.604e-03  
  4.4400e-06      0.6828     7.604e-03  
  4.4500e-06      0.6523     7.605e-03  
  4.4600e-06      0.6219     7.605e-03  
  4.4700e-06      0.5914     7.605e-03  
  4.4800e-06      0.5609     7.605e-03  
  4.4900e-06      0.5305     7.605e-03  
  4.5000e-06      0.5000     7.606e-03  
  4.5100e-06      0.4688     7.605e-03  
  4.5200e-06      0.4377     7.605e-03  
  4.5300e-06      0.4065     7.605e-03  
  4.5400e-06      0.3757     7.584e-03  
  4.5500e-06      0.3459     7.560e-03  
  4.5600e-06      0.3169     7.564e-03  
  4.5700e-06      0.2878     7.569e-03  
  4.5800e-06      0.2594     7.742e-03  
  4.5900e-06      0.2329     8.489e-03  
  4.6000e-06      0.2064     9.237e-03  
  4.6100e-06      0.1823     6.756e-03  
  4.6200e-06      0.1590     3.110e-03  
  4.6300e-06      0.1357    -5.362e-04  
  4.6400e-06      0.1154    -2.663e-02  
  4.6500e-06    9.549e-02   -5.563e-02  
  4.6600e-06    7.786e-02      0.2159   
  4.6700e-06    6.186e-02      0.8330   
  4.6800e-06    4.766e-02      0.9440   
  4.6900e-06    3.534e-02      0.9784   
  4.7000e-06    2.479e-02      0.9919   
  4.7100e-06    1.582e-02      0.9970   
  4.7200e-06    9.819e-03      0.9981   
  4.7300e-06    4.063e-03      0.9992   
  4.7400e-06    2.032e-03      0.9993   
  4.7500e-06      0.           0.9995   
  4.7600e-06    2.406e-03      0.9996   
  4.7700e-06    4.812e-03      0.9997   
  4.7800e-06    9.782e-03      0.9997   
  4.7900e-06    1.679e-02      0.9997   
  4.8000e-06    2.572e-02      0.9998   
  4.8100e-06    3.968e-02      0.9998   
  4.8200e-06    5.363e-02      0.9998   
  4.8300e-06    6.758e-02      0.9998   
  4.8400e-06    8.154e-02      0.9998   
  4.8500e-06    9.549e-02      0.9998   
  4.8600e-06      0.1183       0.9998   
  4.8700e-06      0.1412       0.9998   
  4.8800e-06      0.1640       0.9998   
  4.8900e-06      0.1869       0.9998   
  4.9000e-06      0.2097       0.9998   
  4.9100e-06      0.2326       0.9998   
  4.9200e-06      0.2597       0.9998   
  4.9300e-06      0.2875       0.9998   
  4.9400e-06      0.3167       0.9998   
  4.9500e-06      0.3472       0.9998   
  4.9600e-06      0.3778       0.9998   
  4.9700e-06      0.4083       0.9998   
  4.9800e-06      0.4389       0.9998   
  4.9900e-06      0.4694       0.9998   
  5.0000e-06      0.5000       0.9998   
y
-----------------------------------------------

          ***** job concluded
1****** HSPICE -- G-2012.06 32-BIT (May 27 2012) RHEL32 ******                  
 ******  
 *sample netlist for bsim6.0

  ******  job statistics summary tnom=  25.000 temp=  25.000 *****
  
  
 ******  Machine Information  ******
 CPU:
 model name	: AMD Opteron(tm) Processor 248
 cpu MHz	: 2200.023
  
 OS:
 Linux version 2.6.9-22.EL (bhcompile@crowe.devel.redhat.com) (gcc version 3.4.4 20050721 (Red Hat 3.4.4-2)) #1 Mon Sep 19 17:49:49 EDT 2005


  ******  HSPICE Threads Information  ******

  Command Line Threads Count :     1
  Available CPU Count        :     1
  Actual Threads Count       :     1


  ******  Circuit Statistics  ******
  # nodes       =      98 # elements   =      12
  # resistors   =       0 # capacitors =       0 # inductors   =       0
  # mutual_inds =       0 # vccs       =       0 # vcvs        =       0
  # cccs        =       0 # ccvs       =       0 # volt_srcs   =       2
  # curr_srcs   =       0 # diodes     =       0 # bjts        =       0
  # jfets       =       0 # mosfets    =       0 # U elements  =       0
  # T elements  =       0 # W elements =       0 # B elements  =       0
  # S elements  =       0 # P elements =       0 # va device   =      10
  # vector_srcs =       0 # N elements =       0


  ******  Runtime Statistics (seconds)  ******

  analysis           time    # points   tot. iter  conv.iter
  op point           0.01           1          15
  transient          0.58         501         683         226 rev=         0
  readin             2.64
  errchk             0.10
  setup              0.00
  output             0.01


           peak memory used        113.57 megabytes
           total cpu time            3.35 seconds
           total elapsed time       12.71 seconds
           job started at     21:47:41 05/05/2013
           job ended   at     21:47:53 05/05/2013


 lic: Release hspice token(s) 
 lic: total license checkout elapse time:        0.21(s)


pVA concluded on Sun May  5 21:47:53 2013

