Using: /cad/synopsys/Hspice/G-2012.06/hspice/linux/hspice ringosc_17.sp
 ****** HSPICE -- G-2012.06 32-BIT (May 27 2012) RHEL32 ******                  
  Copyright (C) 2012 Synopsys, Inc. All Rights Reserved.                        
  Unpublished-rights reserved under US copyright laws.
  This program is protected by law and is subject to the
  terms and conditions of the license agreement from Synopsys.
  Use of this program is your acceptance to be bound by the
  license agreement. HSPICE is the trademark of Synopsys, Inc.
  Input File: ringosc_17.sp                                                     
  Command line options: ringosc_17.sp
 lic: No 'setenv LM_LICENSE_FILE' in current environment' 
 lic:  
 lic: FLEXlm: v10.8 
 lic: USER:   agarwalh             HOSTNAME: xcel1.vlsi.iitk.ac.in 
 lic: HOSTID: 0008a1953eea         PID:      1628 
 lic: Using FLEXlm license file: 
 lic: 27000@xcel0 
 lic: Checkout 1 hspice 
 lic: License/Maintenance for hspice will expire on 15-jun-2013/2011.09 
 lic: 1(in_use)/5(total) FLOATING license(s) on SERVER xcel0 
 lic:   
 Init: read install configuration file: /cad/synopsys/Hspice/G-2012.06/hspice/meta.cfg


 --------------------------------------------------------
|                                                        |
|          Synopsys Unified Verilog-A (pVA v2.0)         |
|                                                        |
|           Machine Name: xcel1.vlsi.iitk.ac.in          |
| Copyright (c) 2011 Synopsys Inc., All Rights Reserved. |
|                                                        |
 --------------------------------------------------------

libepva built by pvamgr synmake_pva_build  on Tue May  1 20:03:16 PDT 2012
HSP_HOME:   /cad/synopsys/Hspice/G-2012.06/hspice
HSP_ARCH:   linux
HSP_GCC :   /cad/synopsys/Hspice/G-2012.06/hspice/GNU/amd64/gcc-4.5.2-static/bin/gcc -m32 
HSP_GCC_VER:   4.5.2
Working-Dir: /users/phd/agarwalh/synopsys_designs/BSIM6/QA/BSIM6 Release/Release_5_May
Args:        -p hsp -t spi -f ringosc_17.pvadir/pvaHDL.lis -o ringosc_17.pvadir 


Begin of pVA compiling on Sun May  5 21:48:37 2013

Parsing './bsim6.va'
Parsing include file '/cad/synopsys/Hspice/G-2012.06/hspice/include/constants.vams'
Parsing include file '/cad/synopsys/Hspice/G-2012.06/hspice/include/disciplines.vams'

End of pVA compiling on Sun May  5 21:48:38 2013


End of build pVA DB on Sun May  5 21:48:38 2013

*pvaI* Module (bsim6): 4 unexpanded port, 0 init, 2191 behav, 65 contrib, 43/2272 expr(s)
*pvaI* Resizing DB size for v count = 1
*pvaI*        Has DIS (SB), 3 afCount
*pvaI*        0 const-G and 0 const-C, Has switch branch.
*pvaI* Module (bsim6): generated 7 flow node(s) during compilation.

End of pVA genC on Sun May  5 21:48:40 2013

*pvaI* #### Total 316 line-size(s), 43 expr(s), 65 contr(s), 0 init(s), 2191 behav(s), 4 port(s)

Generating ringosc_17.pvadir/pvaRTL_linux.so


End of submitting pVA ringosc_17.pvadir/pvaRTL.mak on Sun May  5 21:48:49 2013


End of pVA elaboration on Sun May  5 21:48:49 2013

  **warning** (ringosc_17.sp:14) Global net name, "gnd", in subckt pin list. The pin will be connected to the local net. Recommend to not use global net names in subckt pin lists.
 Loading pVA library ringosc_17.pvadir/pvaRTL_linux.so...
1****** HSPICE -- G-2012.06 32-BIT (May 27 2012) RHEL32 ******                  
 ******  
 *sample netlist for bsim6.0

  ******  circuit name directory
 circuit number to circuit name directory
   number circuitname                     definition         multiplier
        0 main circuit
        1 xinv1.                          inverter           1.00 
        2 xinv2.                          inverter           1.00 
        3 xinv3.                          inverter           1.00 
        4 xinv4.                          inverter           1.00 
        5 xinv5.                          inverter           1.00 
        6 xinv6.                          inverter           1.00 
        7 xinv7.                          inverter           1.00 
        8 xinv8.                          inverter           1.00 
        9 xinv9.                          inverter           1.00 
       10 xinv10.                         inverter           1.00 
       11 xinv11.                         inverter           1.00 
       12 xinv12.                         inverter           1.00 
       13 xinv13.                         inverter           1.00 
       14 xinv14.                         inverter           1.00 
       15 xinv15.                         inverter           1.00 
       16 xinv16.                         inverter           1.00 
       17 xinv17.                         inverter           1.00 
       18 xinv1.xp1.                      bsim6(va)          1.00 
       19 xinv1.xn1.                      bsim6(va)          1.00 
       20 xinv2.xp1.                      bsim6(va)          1.00 
       21 xinv2.xn1.                      bsim6(va)          1.00 
       22 xinv3.xp1.                      bsim6(va)          1.00 
       23 xinv3.xn1.                      bsim6(va)          1.00 
       24 xinv4.xp1.                      bsim6(va)          1.00 
       25 xinv4.xn1.                      bsim6(va)          1.00 
       26 xinv5.xp1.                      bsim6(va)          1.00 
       27 xinv5.xn1.                      bsim6(va)          1.00 
       28 xinv6.xp1.                      bsim6(va)          1.00 
       29 xinv6.xn1.                      bsim6(va)          1.00 
       30 xinv7.xp1.                      bsim6(va)          1.00 
       31 xinv7.xn1.                      bsim6(va)          1.00 
       32 xinv8.xp1.                      bsim6(va)          1.00 
       33 xinv8.xn1.                      bsim6(va)          1.00 
       34 xinv9.xp1.                      bsim6(va)          1.00 
       35 xinv9.xn1.                      bsim6(va)          1.00 
       36 xinv10.xp1.                     bsim6(va)          1.00 
       37 xinv10.xn1.                     bsim6(va)          1.00 
       38 xinv11.xp1.                     bsim6(va)          1.00 
       39 xinv11.xn1.                     bsim6(va)          1.00 
       40 xinv12.xp1.                     bsim6(va)          1.00 
       41 xinv12.xn1.                     bsim6(va)          1.00 
       42 xinv13.xp1.                     bsim6(va)          1.00 
       43 xinv13.xn1.                     bsim6(va)          1.00 
       44 xinv14.xp1.                     bsim6(va)          1.00 
       45 xinv14.xn1.                     bsim6(va)          1.00 
       46 xinv15.xp1.                     bsim6(va)          1.00 
       47 xinv15.xn1.                     bsim6(va)          1.00 
       48 xinv16.xp1.                     bsim6(va)          1.00 
       49 xinv16.xn1.                     bsim6(va)          1.00 
       50 xinv17.xp1.                     bsim6(va)          1.00 
       51 xinv17.xn1.                     bsim6(va)          1.00 
*pvaI* Creating Verilog-A module 'bsim6' for XINV17.XN1
*pvaI* Creating Verilog-A module 'bsim6' for XINV17.XP1
  
      
 *****************************************************************
 ******  option summary
 ******
 runlvl  = 3         bypass  = 2         
  Opening plot unit= 15
 file=ringosc_17.pa0                                                           

1****** HSPICE -- G-2012.06 32-BIT (May 27 2012) RHEL32 ******                  
 ******  
 *sample netlist for bsim6.0

  ******  operating point information tnom=  25.000 temp=  25.000 *****
 ***** operating point status is voltage   simulation time is     0.     
     node    =voltage       node    =voltage       node    =voltage

 + 0:1       =   1.0000   0:2       = 7.598e-03  0:3       =   0.9998 
 + 0:4       = 7.606e-03  0:5       =   0.9998   0:6       = 7.606e-03
 + 0:7       =   0.9998   0:8       = 7.606e-03  0:9       =   0.9998 
 + 0:10      = 7.606e-03  0:11      =   0.9998   0:12      = 7.606e-03
 + 0:13      =   0.9998   0:14      = 7.606e-03  0:15      =   0.9998 
 + 0:16      = 7.606e-03  0:17      =   0.9998   0:supply  =   1.0000 

 ******  
 *sample netlist for bsim6.0

  ******  transient analysis tnom=  25.000 temp=  25.000 *****
x

        time    voltage    
                     1     
    0.            1.0000   
  1.0000e-09      0.9428   
  2.0000e-09      0.8828   
  3.0000e-09      0.8220   
  4.0000e-09      0.7624   
  5.0000e-09      0.7071   
  6.0000e-09      0.6519   
  7.0000e-09      0.5966   
  8.0000e-09      0.5413   
  9.0000e-09      0.4983   
  1.0000e-08      0.4572   
  1.1000e-08      0.4162   
  1.2000e-08      0.3751   
  1.3000e-08      0.3341   
  1.4000e-08      0.3044   
  1.5000e-08      0.2752   
  1.6000e-08      0.2460   
  1.7000e-08      0.2168   
  1.8000e-08      0.1876   
  1.9000e-08      0.1584   
  2.0000e-08      0.1291   
  2.1000e-08      0.1122   
  2.2000e-08      0.1018   
  2.3000e-08    9.150e-02  
  2.4000e-08    8.114e-02  
  2.5000e-08    7.079e-02  
  2.6000e-08    6.043e-02  
  2.7000e-08    5.008e-02  
  2.8000e-08    3.972e-02  
  2.9000e-08    3.426e-02  
  3.0000e-08    3.404e-02  
  3.1000e-08    3.382e-02  
  3.2000e-08    3.360e-02  
  3.3000e-08    3.338e-02  
  3.4000e-08    3.316e-02  
  3.5000e-08    3.294e-02  
  3.6000e-08    3.272e-02  
  3.7000e-08    3.257e-02  
  3.8000e-08    3.254e-02  
  3.9000e-08    3.251e-02  
  4.0000e-08    3.248e-02  
  4.1000e-08    3.245e-02  
  4.2000e-08    3.242e-02  
  4.3000e-08    3.239e-02  
  4.4000e-08    3.222e-02  
  4.5000e-08    3.191e-02  
  4.6000e-08    3.161e-02  
  4.7000e-08    3.130e-02  
  4.8000e-08    3.099e-02  
  4.9000e-08    3.069e-02  
  5.0000e-08    3.038e-02  
  5.1000e-08    3.008e-02  
  5.2000e-08    2.977e-02  
  5.3000e-08    2.953e-02  
  5.4000e-08    2.939e-02  
  5.5000e-08    2.924e-02  
  5.6000e-08    2.910e-02  
  5.7000e-08    2.896e-02  
  5.8000e-08    2.881e-02  
  5.9000e-08    2.867e-02  
  6.0000e-08    2.852e-02  
  6.1000e-08    2.838e-02  
  6.2000e-08    2.824e-02  
  6.3000e-08    2.809e-02  
  6.4000e-08    2.795e-02  
  6.5000e-08    2.780e-02  
  6.6000e-08    2.714e-02  
  6.7000e-08    2.627e-02  
  6.8000e-08    2.540e-02  
  6.9000e-08    2.452e-02  
  7.0000e-08    2.365e-02  
  7.1000e-08    2.277e-02  
  7.2000e-08    2.190e-02  
  7.3000e-08    2.103e-02  
  7.4000e-08    2.015e-02  
  7.5000e-08    1.928e-02  
  7.6000e-08    1.840e-02  
  7.7000e-08    1.753e-02  
  7.8000e-08    1.683e-02  
  7.9000e-08    1.640e-02  
  8.0000e-08    1.597e-02  
  8.1000e-08    1.554e-02  
  8.2000e-08    1.511e-02  
  8.3000e-08    1.468e-02  
  8.4000e-08    1.425e-02  
  8.5000e-08    1.383e-02  
  8.6000e-08    1.340e-02  
  8.7000e-08    1.297e-02  
  8.8000e-08    1.316e-02  
  8.9000e-08    1.345e-02  
  9.0000e-08    1.373e-02  
  9.1000e-08    1.401e-02  
  9.2000e-08    1.429e-02  
  9.3000e-08    1.457e-02  
  9.4000e-08    1.485e-02  
  9.5000e-08    1.513e-02  
  9.6000e-08    1.541e-02  
  9.7000e-08    1.552e-02  
  9.8000e-08    1.531e-02  
  9.9000e-08    1.509e-02  
  1.0000e-07    1.487e-02  
  1.0100e-07    1.465e-02  
  1.0200e-07    1.444e-02  
  1.0300e-07    1.422e-02  
  1.0400e-07    1.400e-02  
  1.0500e-07    1.379e-02  
  1.0600e-07    1.358e-02  
  1.0700e-07    1.336e-02  
  1.0800e-07    1.317e-02  
  1.0900e-07    1.297e-02  
  1.1000e-07    1.278e-02  
  1.1100e-07    1.260e-02  
  1.1200e-07    1.246e-02  
  1.1300e-07    1.231e-02  
  1.1400e-07    1.216e-02  
  1.1500e-07    1.201e-02  
  1.1600e-07    1.186e-02  
  1.1700e-07    1.171e-02  
  1.1800e-07    1.157e-02  
  1.1900e-07    1.142e-02  
  1.2000e-07    1.127e-02  
  1.2100e-07    1.112e-02  
  1.2200e-07    1.098e-02  
  1.2300e-07    1.085e-02  
  1.2400e-07    1.072e-02  
  1.2500e-07    1.059e-02  
  1.2600e-07    1.046e-02  
  1.2700e-07    1.033e-02  
  1.2800e-07    1.020e-02  
  1.2900e-07    1.007e-02  
  1.3000e-07    9.945e-03  
  1.3100e-07    9.855e-03  
  1.3200e-07    9.766e-03  
  1.3300e-07    9.676e-03  
  1.3400e-07    9.587e-03  
  1.3500e-07    9.498e-03  
  1.3600e-07    9.409e-03  
  1.3700e-07    9.319e-03  
  1.3800e-07    9.230e-03  
  1.3900e-07    9.141e-03  
  1.4000e-07    9.052e-03  
  1.4100e-07    9.022e-03  
  1.4200e-07    9.026e-03  
  1.4300e-07    9.031e-03  
  1.4400e-07    9.035e-03  
  1.4500e-07    9.040e-03  
  1.4600e-07    9.044e-03  
  1.4700e-07    9.049e-03  
  1.4800e-07    9.054e-03  
  1.4900e-07    9.020e-03  
  1.5000e-07    8.969e-03  
  1.5100e-07    8.917e-03  
  1.5200e-07    8.866e-03  
  1.5300e-07    8.815e-03  
  1.5400e-07    8.763e-03  
  1.5500e-07    8.712e-03  
  1.5600e-07    8.661e-03  
  1.5700e-07    8.609e-03  
  1.5800e-07    8.567e-03  
  1.5900e-07    8.525e-03  
  1.6000e-07    8.483e-03  
  1.6100e-07    8.440e-03  
  1.6200e-07    8.398e-03  
  1.6300e-07    8.356e-03  
  1.6400e-07    8.313e-03  
  1.6500e-07    8.271e-03  
  1.6600e-07    8.248e-03  
  1.6700e-07    8.227e-03  
  1.6800e-07    8.207e-03  
  1.6900e-07    8.186e-03  
  1.7000e-07    8.165e-03  
  1.7100e-07    8.145e-03  
  1.7200e-07    8.124e-03  
  1.7300e-07    8.104e-03  
  1.7400e-07    8.083e-03  
  1.7500e-07    8.062e-03  
  1.7600e-07    8.042e-03  
  1.7700e-07    8.028e-03  
  1.7800e-07    8.016e-03  
  1.7900e-07    8.004e-03  
  1.8000e-07    7.992e-03  
  1.8100e-07    7.981e-03  
  1.8200e-07    7.969e-03  
  1.8300e-07    7.957e-03  
  1.8400e-07    7.945e-03  
  1.8500e-07    7.933e-03  
  1.8600e-07    7.921e-03  
  1.8700e-07    7.909e-03  
  1.8800e-07    7.898e-03  
  1.8900e-07    7.886e-03  
  1.9000e-07    7.875e-03  
  1.9100e-07    7.866e-03  
  1.9200e-07    7.856e-03  
  1.9300e-07    7.846e-03  
  1.9400e-07    7.837e-03  
  1.9500e-07    7.829e-03  
  1.9600e-07    7.825e-03  
  1.9700e-07    7.821e-03  
  1.9800e-07    7.817e-03  
  1.9900e-07    7.813e-03  
  2.0000e-07    7.809e-03  
  2.0100e-07    7.805e-03  
  2.0200e-07    7.801e-03  
  2.0300e-07    7.797e-03  
  2.0400e-07    7.792e-03  
  2.0500e-07    7.786e-03  
  2.0600e-07    7.781e-03  
  2.0700e-07    7.775e-03  
  2.0800e-07    7.770e-03  
  2.0900e-07    7.763e-03  
  2.1000e-07    7.756e-03  
  2.1100e-07    7.749e-03  
  2.1200e-07    7.742e-03  
  2.1300e-07    7.736e-03  
  2.1400e-07    7.729e-03  
  2.1500e-07    7.722e-03  
  2.1600e-07    7.718e-03  
  2.1700e-07    7.714e-03  
  2.1800e-07    7.710e-03  
  2.1900e-07    7.707e-03  
  2.2000e-07    7.703e-03  
  2.2100e-07    7.699e-03  
  2.2200e-07    7.695e-03  
  2.2300e-07    7.692e-03  
  2.2400e-07    7.690e-03  
  2.2500e-07    7.688e-03  
  2.2600e-07    7.686e-03  
  2.2700e-07    7.684e-03  
  2.2800e-07    7.681e-03  
  2.2900e-07    7.679e-03  
  2.3000e-07    7.677e-03  
  2.3100e-07    7.675e-03  
  2.3200e-07    7.673e-03  
  2.3300e-07    7.671e-03  
  2.3400e-07    7.669e-03  
  2.3500e-07    7.667e-03  
  2.3600e-07    7.665e-03  
  2.3700e-07    7.663e-03  
  2.3800e-07    7.662e-03  
  2.3900e-07    7.660e-03  
  2.4000e-07    7.658e-03  
  2.4100e-07    7.657e-03  
  2.4200e-07    7.655e-03  
  2.4300e-07    7.653e-03  
  2.4400e-07    7.652e-03  
  2.4500e-07    7.650e-03  
  2.4600e-07    7.648e-03  
  2.4700e-07    7.647e-03  
  2.4800e-07    7.645e-03  
  2.4900e-07    7.644e-03  
  2.5000e-07    7.643e-03  
  2.5100e-07    7.642e-03  
  2.5200e-07    7.641e-03  
  2.5300e-07    7.640e-03  
  2.5400e-07    7.639e-03  
  2.5500e-07    7.638e-03  
  2.5600e-07    7.636e-03  
  2.5700e-07    7.635e-03  
  2.5800e-07    7.634e-03  
  2.5900e-07    7.633e-03  
  2.6000e-07    7.632e-03  
  2.6100e-07    7.631e-03  
  2.6200e-07    7.630e-03  
  2.6300e-07    7.629e-03  
  2.6400e-07    7.628e-03  
  2.6500e-07    7.627e-03  
  2.6600e-07    7.626e-03  
  2.6700e-07    7.626e-03  
  2.6800e-07    7.625e-03  
  2.6900e-07    7.624e-03  
  2.7000e-07    7.624e-03  
  2.7100e-07    7.623e-03  
  2.7200e-07    7.622e-03  
  2.7300e-07    7.622e-03  
  2.7400e-07    7.621e-03  
  2.7500e-07    7.621e-03  
  2.7600e-07    7.620e-03  
  2.7700e-07    7.620e-03  
  2.7800e-07    7.619e-03  
  2.7900e-07    7.619e-03  
  2.8000e-07    7.619e-03  
  2.8100e-07    7.618e-03  
  2.8200e-07    7.618e-03  
  2.8300e-07    7.618e-03  
  2.8400e-07    7.617e-03  
  2.8500e-07    7.617e-03  
  2.8600e-07    7.617e-03  
  2.8700e-07    7.616e-03  
  2.8800e-07    7.616e-03  
  2.8900e-07    7.616e-03  
  2.9000e-07    7.615e-03  
  2.9100e-07    7.615e-03  
  2.9200e-07    7.614e-03  
  2.9300e-07    7.614e-03  
  2.9400e-07    7.613e-03  
  2.9500e-07    7.613e-03  
  2.9600e-07    7.612e-03  
  2.9700e-07    7.612e-03  
  2.9800e-07    7.612e-03  
  2.9900e-07    7.612e-03  
  3.0000e-07    7.612e-03  
  3.0100e-07    7.612e-03  
  3.0200e-07    7.612e-03  
  3.0300e-07    7.612e-03  
  3.0400e-07    7.612e-03  
  3.0500e-07    7.612e-03  
  3.0600e-07    7.612e-03  
  3.0700e-07    7.613e-03  
  3.0800e-07    7.613e-03  
  3.0900e-07    7.613e-03  
  3.1000e-07    7.613e-03  
  3.1100e-07    7.612e-03  
  3.1200e-07    7.612e-03  
  3.1300e-07    7.611e-03  
  3.1400e-07    7.610e-03  
  3.1500e-07    7.610e-03  
  3.1600e-07    7.609e-03  
  3.1700e-07    7.608e-03  
  3.1800e-07    7.608e-03  
  3.1900e-07    7.607e-03  
  3.2000e-07    7.606e-03  
  3.2100e-07    7.604e-03  
  3.2200e-07    7.601e-03  
  3.2300e-07    7.599e-03  
  3.2400e-07    7.597e-03  
  3.2500e-07    7.594e-03  
  3.2600e-07    7.592e-03  
  3.2700e-07    7.589e-03  
  3.2800e-07    7.587e-03  
  3.2900e-07    7.585e-03  
  3.3000e-07    7.586e-03  
  3.3100e-07    7.590e-03  
  3.3200e-07    7.593e-03  
  3.3300e-07    7.597e-03  
  3.3400e-07    7.600e-03  
  3.3500e-07    7.603e-03  
  3.3600e-07    7.607e-03  
  3.3700e-07    7.610e-03  
  3.3800e-07    7.612e-03  
  3.3900e-07    7.614e-03  
  3.4000e-07    7.617e-03  
  3.4100e-07    7.619e-03  
  3.4200e-07    7.621e-03  
  3.4300e-07    7.623e-03  
  3.4400e-07    7.625e-03  
  3.4500e-07    7.627e-03  
  3.4600e-07    7.627e-03  
  3.4700e-07    7.626e-03  
  3.4800e-07    7.624e-03  
  3.4900e-07    7.623e-03  
  3.5000e-07    7.622e-03  
  3.5100e-07    7.621e-03  
  3.5200e-07    7.620e-03  
  3.5300e-07    7.619e-03  
  3.5400e-07    7.618e-03  
  3.5500e-07    7.616e-03  
  3.5600e-07    7.615e-03  
  3.5700e-07    7.614e-03  
  3.5800e-07    7.613e-03  
  3.5900e-07    7.616e-03  
  3.6000e-07    7.626e-03  
  3.6100e-07    7.637e-03  
  3.6200e-07    7.652e-03  
  3.6300e-07    7.666e-03  
  3.6400e-07    7.681e-03  
  3.6500e-07    7.697e-03  
  3.6600e-07    7.713e-03  
  3.6700e-07    7.729e-03  
  3.6800e-07    7.746e-03  
  3.6900e-07    7.762e-03  
  3.7000e-07    7.778e-03  
  3.7100e-07    7.794e-03  
  3.7200e-07    7.811e-03  
  3.7300e-07    7.793e-03  
  3.7400e-07    7.746e-03  
  3.7500e-07    7.700e-03  
  3.7600e-07    7.654e-03  
  3.7700e-07    7.607e-03  
  3.7800e-07    7.561e-03  
  3.7900e-07    7.515e-03  
  3.8000e-07    7.462e-03  
  3.8100e-07    7.409e-03  
  3.8200e-07    7.356e-03  
  3.8300e-07    7.303e-03  
  3.8400e-07    7.250e-03  
  3.8500e-07    7.196e-03  
  3.8600e-07    7.143e-03  
  3.8700e-07    7.090e-03  
  3.8800e-07    7.080e-03  
  3.8900e-07    7.078e-03  
  3.9000e-07    7.076e-03  
  3.9100e-07    7.074e-03  
  3.9200e-07    7.073e-03  
  3.9300e-07    7.071e-03  
  3.9400e-07    7.069e-03  
  3.9500e-07    7.092e-03  
  3.9600e-07    7.119e-03  
  3.9700e-07    7.146e-03  
  3.9800e-07    7.173e-03  
  3.9900e-07    7.201e-03  
  4.0000e-07    7.228e-03  
  4.0100e-07    7.255e-03  
  4.0200e-07    7.283e-03  
  4.0300e-07    7.310e-03  
  4.0400e-07    7.336e-03  
  4.0500e-07    7.356e-03  
  4.0600e-07    7.377e-03  
  4.0700e-07    7.397e-03  
  4.0800e-07    7.417e-03  
  4.0900e-07    7.437e-03  
  4.1000e-07    7.458e-03  
  4.1100e-07    7.478e-03  
  4.1200e-07    7.498e-03  
  4.1300e-07    7.519e-03  
  4.1400e-07    7.539e-03  
  4.1500e-07    7.559e-03  
  4.1600e-07    7.579e-03  
  4.1700e-07    7.600e-03  
  4.1800e-07    7.738e-03  
  4.1900e-07    8.196e-03  
  4.2000e-07    8.655e-03  
  4.2100e-07    9.113e-03  
  4.2200e-07    9.572e-03  
  4.2300e-07    1.003e-02  
  4.2400e-07    1.049e-02  
  4.2500e-07    1.095e-02  
  4.2600e-07    1.141e-02  
  4.2700e-07    1.187e-02  
  4.2800e-07    1.232e-02  
  4.2900e-07    1.278e-02  
  4.3000e-07    1.324e-02  
  4.3100e-07    1.349e-02  
  4.3200e-07    1.333e-02  
  4.3300e-07    1.317e-02  
  4.3400e-07    1.300e-02  
  4.3500e-07    1.284e-02  
  4.3600e-07    1.268e-02  
  4.3700e-07    1.251e-02  
  4.3800e-07    1.235e-02  
  4.3900e-07    1.219e-02  
  4.4000e-07    1.175e-02  
  4.4100e-07    1.036e-02  
  4.4200e-07    8.964e-03  
  4.4300e-07    7.570e-03  
  4.4400e-07    6.175e-03  
  4.4500e-07    4.780e-03  
  4.4600e-07    3.386e-03  
  4.4700e-07    1.991e-03  
  4.4800e-07    5.965e-04  
  4.4900e-07   -8.003e-04  
  4.5000e-07   -2.494e-03  
  4.5100e-07   -4.187e-03  
  4.5200e-07   -5.896e-03  
  4.5300e-07   -7.623e-03  
  4.5400e-07   -9.350e-03  
  4.5500e-07   -1.108e-02  
  4.5600e-07   -1.284e-02  
  4.5700e-07   -1.459e-02  
  4.5800e-07   -1.635e-02  
  4.5900e-07   -1.811e-02  
  4.6000e-07   -1.986e-02  
  4.6100e-07   -2.162e-02  
  4.6200e-07   -2.337e-02  
  4.6300e-07   -2.513e-02  
  4.6400e-07   -2.689e-02  
  4.6500e-07   -2.864e-02  
  4.6600e-07   -3.051e-02  
  4.6700e-07   -3.243e-02  
  4.6800e-07   -3.436e-02  
  4.6900e-07   -3.628e-02  
  4.7000e-07   -3.820e-02  
  4.7100e-07   -4.013e-02  
  4.7200e-07   -4.205e-02  
  4.7300e-07   -4.397e-02  
  4.7400e-07   -4.590e-02  
  4.7500e-07   -4.782e-02  
  4.7600e-07   -4.221e-02  
  4.7700e-07   -2.893e-02  
  4.7800e-07   -1.565e-02  
  4.7900e-07   -2.368e-03  
  4.8000e-07    1.091e-02  
  4.8100e-07    2.419e-02  
  4.8200e-07    3.747e-02  
  4.8300e-07    5.075e-02  
  4.8400e-07    6.403e-02  
  4.8500e-07    7.732e-02  
  4.8600e-07    9.060e-02  
  4.8700e-07      0.1039   
  4.8800e-07      0.1172   
  4.8900e-07      0.1329   
  4.9000e-07      0.1594   
  4.9100e-07      0.1859   
  4.9200e-07      0.2124   
  4.9300e-07      0.2389   
  4.9400e-07      0.2654   
  4.9500e-07      0.2919   
  4.9600e-07      0.3184   
  4.9700e-07      0.3449   
  4.9800e-07      0.3652   
  4.9900e-07      0.3838   
  5.0000e-07      0.4023   
  5.0100e-07      0.4209   
  5.0200e-07      0.4395   
  5.0300e-07      0.4581   
  5.0400e-07      0.4766   
  5.0500e-07      0.4952   
  5.0600e-07      0.5138   
  5.0700e-07      0.5313   
  5.0800e-07      0.5445   
  5.0900e-07      0.5578   
  5.1000e-07      0.5710   
  5.1100e-07      0.5842   
  5.1200e-07      0.5974   
  5.1300e-07      0.6107   
  5.1400e-07      0.6239   
  5.1500e-07      0.6358   
  5.1600e-07      0.6463   
  5.1700e-07      0.6569   
  5.1800e-07      0.6675   
  5.1900e-07      0.6781   
  5.2000e-07      0.6887   
  5.2100e-07      0.6992   
  5.2200e-07      0.7098   
  5.2300e-07      0.7204   
  5.2400e-07      0.7310   
  5.2500e-07      0.7399   
  5.2600e-07      0.7486   
  5.2700e-07      0.7573   
  5.2800e-07      0.7660   
  5.2900e-07      0.7748   
  5.3000e-07      0.7835   
  5.3100e-07      0.7922   
  5.3200e-07      0.8009   
  5.3300e-07      0.8096   
  5.3400e-07      0.8183   
  5.3500e-07      0.8270   
  5.3600e-07      0.8357   
  5.3700e-07      0.8444   
  5.3800e-07      0.8523   
  5.3900e-07      0.8540   
  5.4000e-07      0.8558   
  5.4100e-07      0.8575   
  5.4200e-07      0.8592   
  5.4300e-07      0.8609   
  5.4400e-07      0.8627   
  5.4500e-07      0.8644   
  5.4600e-07      0.8661   
  5.4700e-07      0.8679   
  5.4800e-07      0.8696   
  5.4900e-07      0.8713   
  5.5000e-07      0.8730   
  5.5100e-07      0.8748   
  5.5200e-07      0.8765   
  5.5300e-07      0.8782   
  5.5400e-07      0.8799   
  5.5500e-07      0.8822   
  5.5600e-07      0.8866   
  5.5700e-07      0.8910   
  5.5800e-07      0.8955   
  5.5900e-07      0.8999   
  5.6000e-07      0.9043   
  5.6100e-07      0.9088   
  5.6200e-07      0.9132   
  5.6300e-07      0.9176   
  5.6400e-07      0.9206   
  5.6500e-07      0.9232   
  5.6600e-07      0.9259   
  5.6700e-07      0.9286   
  5.6800e-07      0.9313   
  5.6900e-07      0.9340   
  5.7000e-07      0.9367   
  5.7100e-07      0.9394   
  5.7200e-07      0.9420   
  5.7300e-07      0.9447   
  5.7400e-07      0.9465   
  5.7500e-07      0.9483   
  5.7600e-07      0.9501   
  5.7700e-07      0.9519   
  5.7800e-07      0.9537   
  5.7900e-07      0.9555   
  5.8000e-07      0.9574   
  5.8100e-07      0.9592   
  5.8200e-07      0.9606   
  5.8300e-07      0.9618   
  5.8400e-07      0.9630   
  5.8500e-07      0.9643   
  5.8600e-07      0.9655   
  5.8700e-07      0.9668   
  5.8800e-07      0.9680   
  5.8900e-07      0.9692   
  5.9000e-07      0.9705   
  5.9100e-07      0.9717   
  5.9200e-07      0.9730   
  5.9300e-07      0.9742   
  5.9400e-07      0.9754   
  5.9500e-07      0.9761   
  5.9600e-07      0.9767   
  5.9700e-07      0.9773   
  5.9800e-07      0.9779   
  5.9900e-07      0.9784   
  6.0000e-07      0.9790   
  6.0100e-07      0.9796   
  6.0200e-07      0.9801   
  6.0300e-07      0.9807   
  6.0400e-07      0.9813   
  6.0500e-07      0.9819   
  6.0600e-07      0.9824   
  6.0700e-07      0.9830   
  6.0800e-07      0.9836   
  6.0900e-07      0.9842   
  6.1000e-07      0.9848   
  6.1100e-07      0.9854   
  6.1200e-07      0.9860   
  6.1300e-07      0.9866   
  6.1400e-07      0.9873   
  6.1500e-07      0.9879   
  6.1600e-07      0.9885   
  6.1700e-07      0.9891   
  6.1800e-07      0.9894   
  6.1900e-07      0.9898   
  6.2000e-07      0.9902   
  6.2100e-07      0.9905   
  6.2200e-07      0.9909   
  6.2300e-07      0.9912   
  6.2400e-07      0.9916   
  6.2500e-07      0.9920   
  6.2600e-07      0.9923   
  6.2700e-07      0.9926   
  6.2800e-07      0.9928   
  6.2900e-07      0.9930   
  6.3000e-07      0.9932   
  6.3100e-07      0.9934   
  6.3200e-07      0.9936   
  6.3300e-07      0.9938   
  6.3400e-07      0.9941   
  6.3500e-07      0.9943   
  6.3600e-07      0.9944   
  6.3700e-07      0.9946   
  6.3800e-07      0.9948   
  6.3900e-07      0.9949   
  6.4000e-07      0.9951   
  6.4100e-07      0.9953   
  6.4200e-07      0.9954   
  6.4300e-07      0.9955   
  6.4400e-07      0.9956   
  6.4500e-07      0.9958   
  6.4600e-07      0.9959   
  6.4700e-07      0.9960   
  6.4800e-07      0.9962   
  6.4900e-07      0.9963   
  6.5000e-07      0.9964   
  6.5100e-07      0.9965   
  6.5200e-07      0.9967   
  6.5300e-07      0.9967   
  6.5400e-07      0.9968   
  6.5500e-07      0.9969   
  6.5600e-07      0.9970   
  6.5700e-07      0.9971   
  6.5800e-07      0.9972   
  6.5900e-07      0.9973   
  6.6000e-07      0.9973   
  6.6100e-07      0.9974   
  6.6200e-07      0.9975   
  6.6300e-07      0.9976   
  6.6400e-07      0.9977   
  6.6500e-07      0.9977   
  6.6600e-07      0.9978   
  6.6700e-07      0.9979   
  6.6800e-07      0.9980   
  6.6900e-07      0.9981   
  6.7000e-07      0.9981   
  6.7100e-07      0.9982   
  6.7200e-07      0.9982   
  6.7300e-07      0.9983   
  6.7400e-07      0.9983   
  6.7500e-07      0.9984   
  6.7600e-07      0.9985   
  6.7700e-07      0.9985   
  6.7800e-07      0.9986   
  6.7900e-07      0.9986   
  6.8000e-07      0.9987   
  6.8100e-07      0.9987   
  6.8200e-07      0.9987   
  6.8300e-07      0.9987   
  6.8400e-07      0.9988   
  6.8500e-07      0.9988   
  6.8600e-07      0.9988   
  6.8700e-07      0.9989   
  6.8800e-07      0.9989   
  6.8900e-07      0.9989   
  6.9000e-07      0.9990   
  6.9100e-07      0.9990   
  6.9200e-07      0.9990   
  6.9300e-07      0.9990   
  6.9400e-07      0.9991   
  6.9500e-07      0.9991   
  6.9600e-07      0.9991   
  6.9700e-07      0.9991   
  6.9800e-07      0.9992   
  6.9900e-07      0.9992   
  7.0000e-07      0.9992   
  7.0100e-07      0.9992   
  7.0200e-07      0.9992   
  7.0300e-07      0.9993   
  7.0400e-07      0.9993   
  7.0500e-07      0.9993   
  7.0600e-07      0.9993   
  7.0700e-07      0.9994   
  7.0800e-07      0.9994   
  7.0900e-07      0.9994   
  7.1000e-07      0.9994   
  7.1100e-07      0.9994   
  7.1200e-07      0.9994   
  7.1300e-07      0.9994   
  7.1400e-07      0.9995   
  7.1500e-07      0.9995   
  7.1600e-07      0.9995   
  7.1700e-07      0.9995   
  7.1800e-07      0.9995   
  7.1900e-07      0.9995   
  7.2000e-07      0.9995   
  7.2100e-07      0.9995   
  7.2200e-07      0.9996   
  7.2300e-07      0.9996   
  7.2400e-07      0.9996   
  7.2500e-07      0.9996   
  7.2600e-07      0.9996   
  7.2700e-07      0.9996   
  7.2800e-07      0.9996   
  7.2900e-07      0.9996   
  7.3000e-07      0.9996   
  7.3100e-07      0.9996   
  7.3200e-07      0.9996   
  7.3300e-07      0.9997   
  7.3400e-07      0.9997   
  7.3500e-07      0.9997   
  7.3600e-07      0.9997   
  7.3700e-07      0.9997   
  7.3800e-07      0.9997   
  7.3900e-07      0.9997   
  7.4000e-07      0.9997   
  7.4100e-07      0.9997   
  7.4200e-07      0.9997   
  7.4300e-07      0.9997   
  7.4400e-07      0.9997   
  7.4500e-07      0.9997   
  7.4600e-07      0.9997   
  7.4700e-07      0.9997   
  7.4800e-07      0.9997   
  7.4900e-07      0.9997   
  7.5000e-07      0.9997   
  7.5100e-07      0.9997   
  7.5200e-07      0.9997   
  7.5300e-07      0.9997   
  7.5400e-07      0.9997   
  7.5500e-07      0.9998   
  7.5600e-07      0.9998   
  7.5700e-07      0.9998   
  7.5800e-07      0.9998   
  7.5900e-07      0.9998   
  7.6000e-07      0.9998   
  7.6100e-07      0.9998   
  7.6200e-07      0.9998   
  7.6300e-07      0.9998   
  7.6400e-07      0.9998   
  7.6500e-07      0.9998   
  7.6600e-07      0.9998   
  7.6700e-07      0.9998   
  7.6800e-07      0.9998   
  7.6900e-07      0.9998   
  7.7000e-07      0.9998   
  7.7100e-07      0.9998   
  7.7200e-07      0.9998   
  7.7300e-07      0.9998   
  7.7400e-07      0.9998   
  7.7500e-07      0.9998   
  7.7600e-07      0.9998   
  7.7700e-07      0.9998   
  7.7800e-07      0.9998   
  7.7900e-07      0.9998   
  7.8000e-07      0.9998   
  7.8100e-07      0.9998   
  7.8200e-07      0.9998   
  7.8300e-07      0.9998   
  7.8400e-07      0.9998   
  7.8500e-07      0.9998   
  7.8600e-07      0.9998   
  7.8700e-07      0.9998   
  7.8800e-07      0.9998   
  7.8900e-07      0.9998   
  7.9000e-07      0.9998   
  7.9100e-07      0.9998   
  7.9200e-07      0.9998   
  7.9300e-07      0.9998   
  7.9400e-07      0.9998   
  7.9500e-07      0.9998   
  7.9600e-07      0.9998   
  7.9700e-07      0.9998   
  7.9800e-07      0.9998   
  7.9900e-07      0.9998   
  8.0000e-07      0.9998   
  8.0100e-07      0.9998   
  8.0200e-07      0.9998   
  8.0300e-07      0.9998   
  8.0400e-07      0.9998   
  8.0500e-07      0.9998   
  8.0600e-07      0.9998   
  8.0700e-07      0.9998   
  8.0800e-07      0.9998   
  8.0900e-07      0.9998   
  8.1000e-07      0.9998   
  8.1100e-07      0.9998   
  8.1200e-07      0.9998   
  8.1300e-07      0.9998   
  8.1400e-07      0.9998   
  8.1500e-07      0.9998   
  8.1600e-07      0.9998   
  8.1700e-07      0.9998   
  8.1800e-07      0.9998   
  8.1900e-07      0.9998   
  8.2000e-07      0.9998   
  8.2100e-07      0.9998   
  8.2200e-07      0.9998   
  8.2300e-07      0.9998   
  8.2400e-07      0.9998   
  8.2500e-07      0.9998   
  8.2600e-07      0.9998   
  8.2700e-07      0.9998   
  8.2800e-07      0.9998   
  8.2900e-07      0.9998   
  8.3000e-07      0.9998   
  8.3100e-07      0.9998   
  8.3200e-07      0.9998   
  8.3300e-07      0.9998   
  8.3400e-07      0.9999   
  8.3500e-07      0.9999   
  8.3600e-07      0.9999   
  8.3700e-07      0.9999   
  8.3800e-07      0.9999   
  8.3900e-07      0.9999   
  8.4000e-07      0.9999   
  8.4100e-07      0.9999   
  8.4200e-07      0.9999   
  8.4300e-07      0.9998   
  8.4400e-07      0.9998   
  8.4500e-07      0.9998   
  8.4600e-07      0.9998   
  8.4700e-07      0.9998   
  8.4800e-07      0.9998   
  8.4900e-07      0.9998   
  8.5000e-07      0.9998   
  8.5100e-07      0.9998   
  8.5200e-07      0.9998   
  8.5300e-07      0.9998   
  8.5400e-07      0.9998   
  8.5500e-07      0.9998   
  8.5600e-07      0.9997   
  8.5700e-07      0.9997   
  8.5800e-07      0.9997   
  8.5900e-07      0.9998   
  8.6000e-07      0.9998   
  8.6100e-07      0.9998   
  8.6200e-07      0.9998   
  8.6300e-07      0.9998   
  8.6400e-07      0.9998   
  8.6500e-07      0.9998   
  8.6600e-07      0.9998   
  8.6700e-07      0.9998   
  8.6800e-07      0.9998   
  8.6900e-07      0.9998   
  8.7000e-07      0.9998   
  8.7100e-07      0.9998   
  8.7200e-07      0.9998   
  8.7300e-07      0.9998   
  8.7400e-07      0.9998   
  8.7500e-07      0.9998   
  8.7600e-07      0.9998   
  8.7700e-07      0.9999   
  8.7800e-07      0.9999   
  8.7900e-07      0.9999   
  8.8000e-07      0.9999   
  8.8100e-07      0.9999   
  8.8200e-07      0.9999   
  8.8300e-07      1.0000   
  8.8400e-07      1.0000   
  8.8500e-07      1.0000   
  8.8600e-07      1.0000   
  8.8700e-07      1.0000   
  8.8800e-07      1.0000   
  8.8900e-07      1.0001   
  8.9000e-07      1.0001   
  8.9100e-07      1.0002   
  8.9200e-07      1.0003   
  8.9300e-07      1.0004   
  8.9400e-07      1.0005   
  8.9500e-07      1.0007   
  8.9600e-07      1.0008   
  8.9700e-07      1.0008   
  8.9800e-07      1.0008   
  8.9900e-07      1.0008   
  9.0000e-07      1.0008   
  9.0100e-07      1.0008   
  9.0200e-07      1.0008   
  9.0300e-07      1.0008   
  9.0400e-07      1.0008   
  9.0500e-07      1.0005   
  9.0600e-07      1.0003   
  9.0700e-07      1.0001   
  9.0800e-07      0.9998   
  9.0900e-07      0.9996   
  9.1000e-07      0.9993   
  9.1100e-07      0.9991   
  9.1200e-07      0.9988   
  9.1300e-07      0.9985   
  9.1400e-07      0.9982   
  9.1500e-07      0.9979   
  9.1600e-07      0.9977   
  9.1700e-07      0.9974   
  9.1800e-07      0.9972   
  9.1900e-07      0.9970   
  9.2000e-07      0.9968   
  9.2100e-07      0.9966   
  9.2200e-07      0.9964   
  9.2300e-07      0.9962   
  9.2400e-07      0.9960   
  9.2500e-07      0.9958   
  9.2600e-07      0.9956   
  9.2700e-07      0.9954   
  9.2800e-07      0.9952   
  9.2900e-07      0.9951   
  9.3000e-07      0.9949   
  9.3100e-07      0.9947   
  9.3200e-07      0.9945   
  9.3300e-07      0.9943   
  9.3400e-07      0.9942   
  9.3500e-07      0.9940   
  9.3600e-07      0.9938   
  9.3700e-07      0.9941   
  9.3800e-07      0.9945   
  9.3900e-07      0.9949   
  9.4000e-07      0.9953   
  9.4100e-07      0.9958   
  9.4200e-07      0.9962   
  9.4300e-07      0.9966   
  9.4400e-07      0.9970   
  9.4500e-07      0.9974   
  9.4600e-07      0.9978   
  9.4700e-07      0.9982   
  9.4800e-07      0.9986   
  9.4900e-07      0.9995   
  9.5000e-07      1.0028   
  9.5100e-07      1.0061   
  9.5200e-07      1.0094   
  9.5300e-07      1.0126   
  9.5400e-07      1.0159   
  9.5500e-07      1.0192   
  9.5600e-07      1.0225   
  9.5700e-07      1.0258   
  9.5800e-07      1.0290   
  9.5900e-07      1.0323   
  9.6000e-07      1.0356   
  9.6100e-07      1.0389   
  9.6200e-07      1.0416   
  9.6300e-07      1.0413   
  9.6400e-07      1.0410   
  9.6500e-07      1.0407   
  9.6600e-07      1.0404   
  9.6700e-07      1.0401   
  9.6800e-07      1.0398   
  9.6900e-07      1.0395   
  9.7000e-07      1.0392   
  9.7100e-07      1.0357   
  9.7200e-07      1.0300   
  9.7300e-07      1.0236   
  9.7400e-07      1.0167   
  9.7500e-07      1.0099   
  9.7600e-07      1.0000   
  9.7700e-07      0.9884   
  9.7800e-07      0.9769   
  9.7900e-07      0.9653   
  9.8000e-07      0.9537   
  9.8100e-07      0.9421   
  9.8200e-07      0.9305   
  9.8300e-07      0.9190   
  9.8400e-07      0.9074   
  9.8500e-07      0.8958   
  9.8600e-07      0.8741   
  9.8700e-07      0.8507   
  9.8800e-07      0.8273   
  9.8900e-07      0.8039   
  9.9000e-07      0.7805   
  9.9100e-07      0.7571   
  9.9200e-07      0.7337   
  9.9300e-07      0.7104   
  9.9400e-07      0.6870   
  9.9500e-07      0.6636   
  9.9600e-07      0.6402   
  9.9700e-07      0.6168   
  9.9800e-07      0.5902   
  9.9900e-07      0.5625   
  1.0000e-06      0.5348   
  1.0010e-06      0.5071   
  1.0020e-06      0.4794   
  1.0030e-06      0.4517   
  1.0040e-06      0.4240   
  1.0050e-06      0.3963   
  1.0060e-06      0.3687   
  1.0070e-06      0.3410   
  1.0080e-06      0.3133   
  1.0090e-06      0.2856   
  1.0100e-06      0.2614   
  1.0110e-06      0.2412   
  1.0120e-06      0.2209   
  1.0130e-06      0.2006   
  1.0140e-06      0.1804   
  1.0150e-06      0.1601   
  1.0160e-06      0.1398   
  1.0170e-06      0.1196   
  1.0180e-06    9.930e-02  
  1.0190e-06    7.903e-02  
  1.0200e-06    5.876e-02  
  1.0210e-06    5.610e-02  
  1.0220e-06    5.477e-02  
  1.0230e-06    5.345e-02  
  1.0240e-06    5.212e-02  
  1.0250e-06    5.079e-02  
  1.0260e-06    4.946e-02  
  1.0270e-06    4.813e-02  
  1.0280e-06    4.681e-02  
  1.0290e-06    4.548e-02  
  1.0300e-06    4.496e-02  
  1.0310e-06    4.447e-02  
  1.0320e-06    4.399e-02  
  1.0330e-06    4.350e-02  
  1.0340e-06    4.302e-02  
  1.0350e-06    4.254e-02  
  1.0360e-06    4.205e-02  
  1.0370e-06    4.155e-02  
  1.0380e-06    4.091e-02  
  1.0390e-06    4.026e-02  
  1.0400e-06    3.962e-02  
  1.0410e-06    3.898e-02  
  1.0420e-06    3.833e-02  
  1.0430e-06    3.769e-02  
  1.0440e-06    3.705e-02  
  1.0450e-06    3.641e-02  
  1.0460e-06    3.604e-02  
  1.0470e-06    3.567e-02  
  1.0480e-06    3.531e-02  
  1.0490e-06    3.494e-02  
  1.0500e-06    3.457e-02  
  1.0510e-06    3.421e-02  
  1.0520e-06    3.384e-02  
  1.0530e-06    3.347e-02  
  1.0540e-06    3.310e-02  
  1.0550e-06    3.274e-02  
  1.0560e-06    3.237e-02  
  1.0570e-06    3.200e-02  
  1.0580e-06    3.164e-02  
  1.0590e-06    3.095e-02  
  1.0600e-06    3.022e-02  
  1.0610e-06    2.922e-02  
  1.0620e-06    2.816e-02  
  1.0630e-06    2.709e-02  
  1.0640e-06    2.595e-02  
  1.0650e-06    2.476e-02  
  1.0660e-06    2.356e-02  
  1.0670e-06    2.237e-02  
  1.0680e-06    2.117e-02  
  1.0690e-06    1.998e-02  
  1.0700e-06    1.878e-02  
  1.0710e-06    1.759e-02  
  1.0720e-06    1.674e-02  
  1.0730e-06    1.658e-02  
  1.0740e-06    1.643e-02  
  1.0750e-06    1.628e-02  
  1.0760e-06    1.613e-02  
  1.0770e-06    1.598e-02  
  1.0780e-06    1.583e-02  
  1.0790e-06    1.587e-02  
  1.0800e-06    1.598e-02  
  1.0810e-06    1.610e-02  
  1.0820e-06    1.621e-02  
  1.0830e-06    1.633e-02  
  1.0840e-06    1.644e-02  
  1.0850e-06    1.656e-02  
  1.0860e-06    1.667e-02  
  1.0870e-06    1.674e-02  
  1.0880e-06    1.656e-02  
  1.0890e-06    1.638e-02  
  1.0900e-06    1.620e-02  
  1.0910e-06    1.602e-02  
  1.0920e-06    1.584e-02  
  1.0930e-06    1.566e-02  
  1.0940e-06    1.546e-02  
  1.0950e-06    1.522e-02  
  1.0960e-06    1.499e-02  
  1.0970e-06    1.476e-02  
  1.0980e-06    1.453e-02  
  1.0990e-06    1.429e-02  
  1.1000e-06    1.406e-02  
  1.1010e-06    1.383e-02  
  1.1020e-06    1.359e-02  
  1.1030e-06    1.338e-02  
  1.1040e-06    1.321e-02  
  1.1050e-06    1.304e-02  
  1.1060e-06    1.288e-02  
  1.1070e-06    1.271e-02  
  1.1080e-06    1.255e-02  
  1.1090e-06    1.238e-02  
  1.1100e-06    1.221e-02  
  1.1110e-06    1.205e-02  
  1.1120e-06    1.188e-02  
  1.1130e-06    1.171e-02  
  1.1140e-06    1.155e-02  
  1.1150e-06    1.138e-02  
  1.1160e-06    1.122e-02  
  1.1170e-06    1.106e-02  
  1.1180e-06    1.093e-02  
  1.1190e-06    1.080e-02  
  1.1200e-06    1.068e-02  
  1.1210e-06    1.055e-02  
  1.1220e-06    1.042e-02  
  1.1230e-06    1.029e-02  
  1.1240e-06    1.016e-02  
  1.1250e-06    1.003e-02  
  1.1260e-06    9.897e-03  
  1.1270e-06    9.768e-03  
  1.1280e-06    9.638e-03  
  1.1290e-06    9.509e-03  
  1.1300e-06    9.464e-03  
  1.1310e-06    9.426e-03  
  1.1320e-06    9.388e-03  
  1.1330e-06    9.350e-03  
  1.1340e-06    9.313e-03  
  1.1350e-06    9.275e-03  
  1.1360e-06    9.237e-03  
  1.1370e-06    9.199e-03  
  1.1380e-06    9.161e-03  
  1.1390e-06    9.128e-03  
  1.1400e-06    9.114e-03  
  1.1410e-06    9.098e-03  
  1.1420e-06    9.071e-03  
  1.1430e-06    9.045e-03  
  1.1440e-06    8.996e-03  
  1.1450e-06    8.947e-03  
  1.1460e-06    8.897e-03  
  1.1470e-06    8.848e-03  
  1.1480e-06    8.799e-03  
  1.1490e-06    8.750e-03  
  1.1500e-06    8.701e-03  
  1.1510e-06    8.660e-03  
  1.1520e-06    8.618e-03  
  1.1530e-06    8.576e-03  
  1.1540e-06    8.534e-03  
  1.1550e-06    8.493e-03  
  1.1560e-06    8.451e-03  
  1.1570e-06    8.409e-03  
  1.1580e-06    8.368e-03  
  1.1590e-06    8.326e-03  
  1.1600e-06    8.284e-03  
  1.1610e-06    8.254e-03  
  1.1620e-06    8.235e-03  
  1.1630e-06    8.216e-03  
  1.1640e-06    8.196e-03  
  1.1650e-06    8.177e-03  
  1.1660e-06    8.157e-03  
  1.1670e-06    8.138e-03  
  1.1680e-06    8.118e-03  
  1.1690e-06    8.099e-03  
  1.1700e-06    8.080e-03  
  1.1710e-06    8.060e-03  
  1.1720e-06    8.041e-03  
  1.1730e-06    8.022e-03  
  1.1740e-06    8.010e-03  
  1.1750e-06    7.998e-03  
  1.1760e-06    7.986e-03  
  1.1770e-06    7.974e-03  
  1.1780e-06    7.962e-03  
  1.1790e-06    7.950e-03  
  1.1800e-06    7.938e-03  
  1.1810e-06    7.926e-03  
  1.1820e-06    7.914e-03  
  1.1830e-06    7.902e-03  
  1.1840e-06    7.890e-03  
  1.1850e-06    7.879e-03  
  1.1860e-06    7.869e-03  
  1.1870e-06    7.863e-03  
  1.1880e-06    7.856e-03  
  1.1890e-06    7.849e-03  
  1.1900e-06    7.843e-03  
  1.1910e-06    7.836e-03  
  1.1920e-06    7.830e-03  
  1.1930e-06    7.823e-03  
  1.1940e-06    7.817e-03  
  1.1950e-06    7.810e-03  
  1.1960e-06    7.804e-03  
  1.1970e-06    7.799e-03  
  1.1980e-06    7.794e-03  
  1.1990e-06    7.790e-03  
  1.2000e-06    7.785e-03  
  1.2010e-06    7.780e-03  
  1.2020e-06    7.775e-03  
  1.2030e-06    7.771e-03  
  1.2040e-06    7.766e-03  
  1.2050e-06    7.761e-03  
  1.2060e-06    7.754e-03  
  1.2070e-06    7.747e-03  
  1.2080e-06    7.740e-03  
  1.2090e-06    7.732e-03  
  1.2100e-06    7.725e-03  
  1.2110e-06    7.717e-03  
  1.2120e-06    7.710e-03  
  1.2130e-06    7.702e-03  
  1.2140e-06    7.700e-03  
  1.2150e-06    7.698e-03  
  1.2160e-06    7.696e-03  
  1.2170e-06    7.694e-03  
  1.2180e-06    7.692e-03  
  1.2190e-06    7.689e-03  
  1.2200e-06    7.687e-03  
  1.2210e-06    7.685e-03  
  1.2220e-06    7.683e-03  
  1.2230e-06    7.681e-03  
  1.2240e-06    7.679e-03  
  1.2250e-06    7.677e-03  
  1.2260e-06    7.675e-03  
  1.2270e-06    7.673e-03  
  1.2280e-06    7.671e-03  
  1.2290e-06    7.669e-03  
  1.2300e-06    7.667e-03  
  1.2310e-06    7.665e-03  
  1.2320e-06    7.663e-03  
  1.2330e-06    7.661e-03  
  1.2340e-06    7.659e-03  
  1.2350e-06    7.657e-03  
  1.2360e-06    7.655e-03  
  1.2370e-06    7.654e-03  
  1.2380e-06    7.652e-03  
  1.2390e-06    7.651e-03  
  1.2400e-06    7.649e-03  
  1.2410e-06    7.648e-03  
  1.2420e-06    7.646e-03  
  1.2430e-06    7.645e-03  
  1.2440e-06    7.643e-03  
  1.2450e-06    7.642e-03  
  1.2460e-06    7.641e-03  
  1.2470e-06    7.640e-03  
  1.2480e-06    7.639e-03  
  1.2490e-06    7.638e-03  
  1.2500e-06    7.637e-03  
  1.2510e-06    7.636e-03  
  1.2520e-06    7.634e-03  
  1.2530e-06    7.633e-03  
  1.2540e-06    7.632e-03  
  1.2550e-06    7.631e-03  
  1.2560e-06    7.631e-03  
  1.2570e-06    7.630e-03  
  1.2580e-06    7.629e-03  
  1.2590e-06    7.628e-03  
  1.2600e-06    7.627e-03  
  1.2610e-06    7.626e-03  
  1.2620e-06    7.625e-03  
  1.2630e-06    7.624e-03  
  1.2640e-06    7.624e-03  
  1.2650e-06    7.623e-03  
  1.2660e-06    7.623e-03  
  1.2670e-06    7.622e-03  
  1.2680e-06    7.622e-03  
  1.2690e-06    7.622e-03  
  1.2700e-06    7.621e-03  
  1.2710e-06    7.621e-03  
  1.2720e-06    7.620e-03  
  1.2730e-06    7.620e-03  
  1.2740e-06    7.619e-03  
  1.2750e-06    7.619e-03  
  1.2760e-06    7.619e-03  
  1.2770e-06    7.618e-03  
  1.2780e-06    7.618e-03  
  1.2790e-06    7.617e-03  
  1.2800e-06    7.617e-03  
  1.2810e-06    7.616e-03  
  1.2820e-06    7.616e-03  
  1.2830e-06    7.616e-03  
  1.2840e-06    7.615e-03  
  1.2850e-06    7.615e-03  
  1.2860e-06    7.614e-03  
  1.2870e-06    7.614e-03  
  1.2880e-06    7.613e-03  
  1.2890e-06    7.613e-03  
  1.2900e-06    7.612e-03  
  1.2910e-06    7.612e-03  
  1.2920e-06    7.612e-03  
  1.2930e-06    7.612e-03  
  1.2940e-06    7.612e-03  
  1.2950e-06    7.612e-03  
  1.2960e-06    7.612e-03  
  1.2970e-06    7.613e-03  
  1.2980e-06    7.613e-03  
  1.2990e-06    7.613e-03  
  1.3000e-06    7.613e-03  
  1.3010e-06    7.613e-03  
  1.3020e-06    7.614e-03  
  1.3030e-06    7.614e-03  
  1.3040e-06    7.614e-03  
  1.3050e-06    7.613e-03  
  1.3060e-06    7.612e-03  
  1.3070e-06    7.610e-03  
  1.3080e-06    7.609e-03  
  1.3090e-06    7.607e-03  
  1.3100e-06    7.606e-03  
  1.3110e-06    7.604e-03  
  1.3120e-06    7.603e-03  
  1.3130e-06    7.601e-03  
  1.3140e-06    7.600e-03  
  1.3150e-06    7.597e-03  
  1.3160e-06    7.594e-03  
  1.3170e-06    7.592e-03  
  1.3180e-06    7.590e-03  
  1.3190e-06    7.591e-03  
  1.3200e-06    7.593e-03  
  1.3210e-06    7.594e-03  
  1.3220e-06    7.596e-03  
  1.3230e-06    7.597e-03  
  1.3240e-06    7.599e-03  
  1.3250e-06    7.600e-03  
  1.3260e-06    7.602e-03  
  1.3270e-06    7.605e-03  
  1.3280e-06    7.607e-03  
  1.3290e-06    7.609e-03  
  1.3300e-06    7.611e-03  
  1.3310e-06    7.614e-03  
  1.3320e-06    7.616e-03  
  1.3330e-06    7.618e-03  
  1.3340e-06    7.621e-03  
  1.3350e-06    7.623e-03  
  1.3360e-06    7.623e-03  
  1.3370e-06    7.623e-03  
  1.3380e-06    7.622e-03  
  1.3390e-06    7.621e-03  
  1.3400e-06    7.620e-03  
  1.3410e-06    7.619e-03  
  1.3420e-06    7.618e-03  
  1.3430e-06    7.617e-03  
  1.3440e-06    7.617e-03  
  1.3450e-06    7.616e-03  
  1.3460e-06    7.615e-03  
  1.3470e-06    7.614e-03  
  1.3480e-06    7.615e-03  
  1.3490e-06    7.621e-03  
  1.3500e-06    7.628e-03  
  1.3510e-06    7.634e-03  
  1.3520e-06    7.640e-03  
  1.3530e-06    7.646e-03  
  1.3540e-06    7.653e-03  
  1.3550e-06    7.659e-03  
  1.3560e-06    7.665e-03  
  1.3570e-06    7.671e-03  
  1.3580e-06    7.678e-03  
  1.3590e-06    7.684e-03  
  1.3600e-06    7.690e-03  
  1.3610e-06    7.693e-03  
  1.3620e-06    7.695e-03  
  1.3630e-06    7.697e-03  
  1.3640e-06    7.699e-03  
  1.3650e-06    7.701e-03  
  1.3660e-06    7.703e-03  
  1.3670e-06    7.705e-03  
  1.3680e-06    7.707e-03  
  1.3690e-06    7.709e-03  
  1.3700e-06    7.711e-03  
  1.3710e-06    7.698e-03  
  1.3720e-06    7.633e-03  
  1.3730e-06    7.569e-03  
  1.3740e-06    7.504e-03  
  1.3750e-06    7.440e-03  
  1.3760e-06    7.376e-03  
  1.3770e-06    7.311e-03  
  1.3780e-06    7.247e-03  
  1.3790e-06    7.182e-03  
  1.3800e-06    7.118e-03  
  1.3810e-06    7.103e-03  
  1.3820e-06    7.092e-03  
  1.3830e-06    7.080e-03  
  1.3840e-06    7.069e-03  
  1.3850e-06    7.058e-03  
  1.3860e-06    7.047e-03  
  1.3870e-06    7.036e-03  
  1.3880e-06    7.032e-03  
  1.3890e-06    7.065e-03  
  1.3900e-06    7.097e-03  
  1.3910e-06    7.130e-03  
  1.3920e-06    7.162e-03  
  1.3930e-06    7.195e-03  
  1.3940e-06    7.227e-03  
  1.3950e-06    7.260e-03  
  1.3960e-06    7.292e-03  
  1.3970e-06    7.310e-03  
  1.3980e-06    7.328e-03  
  1.3990e-06    7.346e-03  
  1.4000e-06    7.363e-03  
  1.4010e-06    7.381e-03  
  1.4020e-06    7.399e-03  
  1.4030e-06    7.416e-03  
  1.4040e-06    7.434e-03  
  1.4050e-06    7.451e-03  
  1.4060e-06    7.469e-03  
  1.4070e-06    7.487e-03  
  1.4080e-06    7.504e-03  
  1.4090e-06    7.522e-03  
  1.4100e-06    7.761e-03  
  1.4110e-06    8.160e-03  
  1.4120e-06    8.559e-03  
  1.4130e-06    8.958e-03  
  1.4140e-06    9.356e-03  
  1.4150e-06    9.755e-03  
  1.4160e-06    1.015e-02  
  1.4170e-06    1.055e-02  
  1.4180e-06    1.095e-02  
  1.4190e-06    1.135e-02  
  1.4200e-06    1.175e-02  
  1.4210e-06    1.215e-02  
  1.4220e-06    1.246e-02  
  1.4230e-06    1.257e-02  
  1.4240e-06    1.268e-02  
  1.4250e-06    1.279e-02  
  1.4260e-06    1.290e-02  
  1.4270e-06    1.301e-02  
  1.4280e-06    1.311e-02  
  1.4290e-06    1.322e-02  
  1.4300e-06    1.333e-02  
  1.4310e-06    1.344e-02  
  1.4320e-06    1.231e-02  
  1.4330e-06    1.107e-02  
  1.4340e-06    9.835e-03  
  1.4350e-06    8.599e-03  
  1.4360e-06    7.363e-03  
  1.4370e-06    6.128e-03  
  1.4380e-06    4.892e-03  
  1.4390e-06    3.656e-03  
  1.4400e-06    2.420e-03  
  1.4410e-06    8.670e-04  
  1.4420e-06   -8.937e-04  
  1.4430e-06   -2.654e-03  
  1.4440e-06   -4.415e-03  
  1.4450e-06   -6.176e-03  
  1.4460e-06   -7.936e-03  
  1.4470e-06   -9.697e-03  
  1.4480e-06   -1.146e-02  
  1.4490e-06   -1.319e-02  
  1.4500e-06   -1.492e-02  
  1.4510e-06   -1.666e-02  
  1.4520e-06   -1.839e-02  
  1.4530e-06   -2.012e-02  
  1.4540e-06   -2.185e-02  
  1.4550e-06   -2.359e-02  
  1.4560e-06   -2.532e-02  
  1.4570e-06   -2.703e-02  
  1.4580e-06   -2.831e-02  
  1.4590e-06   -2.959e-02  
  1.4600e-06   -3.087e-02  
  1.4610e-06   -3.215e-02  
  1.4620e-06   -3.343e-02  
  1.4630e-06   -3.471e-02  
  1.4640e-06   -3.599e-02  
  1.4650e-06   -3.727e-02  
  1.4660e-06   -3.855e-02  
  1.4670e-06   -3.983e-02  
  1.4680e-06   -4.111e-02  
  1.4690e-06   -4.239e-02  
  1.4700e-06   -4.367e-02  
  1.4710e-06   -4.072e-02  
  1.4720e-06   -2.270e-02  
  1.4730e-06   -4.685e-03  
  1.4740e-06    1.333e-02  
  1.4750e-06    3.135e-02  
  1.4760e-06    4.937e-02  
  1.4770e-06    6.739e-02  
  1.4780e-06    8.541e-02  
  1.4790e-06      0.1034   
  1.4800e-06      0.1214   
  1.4810e-06      0.1395   
  1.4820e-06      0.1575   
  1.4830e-06      0.1755   
  1.4840e-06      0.1935   
  1.4850e-06      0.2124   
  1.4860e-06      0.2368   
  1.4870e-06      0.2613   
  1.4880e-06      0.2857   
  1.4890e-06      0.3102   
  1.4900e-06      0.3347   
  1.4910e-06      0.3591   
  1.4920e-06      0.3836   
  1.4930e-06      0.4080   
  1.4940e-06      0.4287   
  1.4950e-06      0.4473   
  1.4960e-06      0.4651   
  1.4970e-06      0.4823   
  1.4980e-06      0.4995   
  1.4990e-06      0.5145   
  1.5000e-06      0.5280   
  1.5010e-06      0.5415   
  1.5020e-06      0.5550   
  1.5030e-06      0.5685   
  1.5040e-06      0.5820   
  1.5050e-06      0.5955   
  1.5060e-06      0.6090   
  1.5070e-06      0.6225   
  1.5080e-06      0.6360   
  1.5090e-06      0.6469   
  1.5100e-06      0.6574   
  1.5110e-06      0.6680   
  1.5120e-06      0.6785   
  1.5130e-06      0.6891   
  1.5140e-06      0.6996   
  1.5150e-06      0.7102   
  1.5160e-06      0.7208   
  1.5170e-06      0.7313   
  1.5180e-06      0.7419   
  1.5190e-06      0.7524   
  1.5200e-06      0.7630   
  1.5210e-06      0.7707   
  1.5220e-06      0.7782   
  1.5230e-06      0.7857   
  1.5240e-06      0.7931   
  1.5250e-06      0.8006   
  1.5260e-06      0.8080   
  1.5270e-06      0.8155   
  1.5280e-06      0.8229   
  1.5290e-06      0.8304   
  1.5300e-06      0.8378   
  1.5310e-06      0.8453   
  1.5320e-06      0.8527   
  1.5330e-06      0.8582   
  1.5340e-06      0.8596   
  1.5350e-06      0.8610   
  1.5360e-06      0.8624   
  1.5370e-06      0.8638   
  1.5380e-06      0.8652   
  1.5390e-06      0.8666   
  1.5400e-06      0.8680   
  1.5410e-06      0.8694   
  1.5420e-06      0.8708   
  1.5430e-06      0.8722   
  1.5440e-06      0.8736   
  1.5450e-06      0.8750   
  1.5460e-06      0.8764   
  1.5470e-06      0.8796   
  1.5480e-06      0.8839   
  1.5490e-06      0.8883   
  1.5500e-06      0.8926   
  1.5510e-06      0.8969   
  1.5520e-06      0.9013   
  1.5530e-06      0.9056   
  1.5540e-06      0.9100   
  1.5550e-06      0.9142   
  1.5560e-06      0.9170   
  1.5570e-06      0.9199   
  1.5580e-06      0.9228   
  1.5590e-06      0.9257   
  1.5600e-06      0.9286   
  1.5610e-06      0.9315   
  1.5620e-06      0.9343   
  1.5630e-06      0.9372   
  1.5640e-06      0.9398   
  1.5650e-06      0.9418   
  1.5660e-06      0.9438   
  1.5670e-06      0.9458   
  1.5680e-06      0.9478   
  1.5690e-06      0.9498   
  1.5700e-06      0.9518   
  1.5710e-06      0.9538   
  1.5720e-06      0.9557   
  1.5730e-06      0.9571   
  1.5740e-06      0.9584   
  1.5750e-06      0.9598   
  1.5760e-06      0.9612   
  1.5770e-06      0.9625   
  1.5780e-06      0.9639   
  1.5790e-06      0.9653   
  1.5800e-06      0.9667   
  1.5810e-06      0.9680   
  1.5820e-06      0.9694   
  1.5830e-06      0.9708   
  1.5840e-06      0.9722   
  1.5850e-06      0.9735   
  1.5860e-06      0.9743   
  1.5870e-06      0.9751   
  1.5880e-06      0.9757   
  1.5890e-06      0.9764   
  1.5900e-06      0.9771   
  1.5910e-06      0.9777   
  1.5920e-06      0.9783   
  1.5930e-06      0.9789   
  1.5940e-06      0.9795   
  1.5950e-06      0.9800   
  1.5960e-06      0.9806   
  1.5970e-06      0.9812   
  1.5980e-06      0.9817   
  1.5990e-06      0.9823   
  1.6000e-06      0.9830   
  1.6010e-06      0.9837   
  1.6020e-06      0.9843   
  1.6030e-06      0.9850   
  1.6040e-06      0.9857   
  1.6050e-06      0.9863   
  1.6060e-06      0.9869   
  1.6070e-06      0.9874   
  1.6080e-06      0.9879   
  1.6090e-06      0.9883   
  1.6100e-06      0.9888   
  1.6110e-06      0.9893   
  1.6120e-06      0.9898   
  1.6130e-06      0.9903   
  1.6140e-06      0.9906   
  1.6150e-06      0.9909   
  1.6160e-06      0.9912   
  1.6170e-06      0.9915   
  1.6180e-06      0.9918   
  1.6190e-06      0.9921   
  1.6200e-06      0.9924   
  1.6210e-06      0.9926   
  1.6220e-06      0.9929   
  1.6230e-06      0.9931   
  1.6240e-06      0.9933   
  1.6250e-06      0.9935   
  1.6260e-06      0.9937   
  1.6270e-06      0.9939   
  1.6280e-06      0.9941   
  1.6290e-06      0.9943   
  1.6300e-06      0.9945   
  1.6310e-06      0.9947   
  1.6320e-06      0.9948   
  1.6330e-06      0.9950   
  1.6340e-06      0.9951   
  1.6350e-06      0.9952   
  1.6360e-06      0.9954   
  1.6370e-06      0.9955   
  1.6380e-06      0.9957   
  1.6390e-06      0.9958   
  1.6400e-06      0.9960   
  1.6410e-06      0.9961   
  1.6420e-06      0.9962   
  1.6430e-06      0.9964   
  1.6440e-06      0.9965   
  1.6450e-06      0.9966   
  1.6460e-06      0.9967   
  1.6470e-06      0.9968   
  1.6480e-06      0.9969   
  1.6490e-06      0.9970   
  1.6500e-06      0.9971   
  1.6510e-06      0.9971   
  1.6520e-06      0.9972   
  1.6530e-06      0.9973   
  1.6540e-06      0.9974   
  1.6550e-06      0.9975   
  1.6560e-06      0.9976   
  1.6570e-06      0.9976   
  1.6580e-06      0.9977   
  1.6590e-06      0.9978   
  1.6600e-06      0.9979   
  1.6610e-06      0.9980   
  1.6620e-06      0.9980   
  1.6630e-06      0.9981   
  1.6640e-06      0.9982   
  1.6650e-06      0.9982   
  1.6660e-06      0.9983   
  1.6670e-06      0.9984   
  1.6680e-06      0.9984   
  1.6690e-06      0.9985   
  1.6700e-06      0.9985   
  1.6710e-06      0.9986   
  1.6720e-06      0.9986   
  1.6730e-06      0.9986   
  1.6740e-06      0.9987   
  1.6750e-06      0.9987   
  1.6760e-06      0.9987   
  1.6770e-06      0.9988   
  1.6780e-06      0.9988   
  1.6790e-06      0.9988   
  1.6800e-06      0.9989   
  1.6810e-06      0.9989   
  1.6820e-06      0.9989   
  1.6830e-06      0.9990   
  1.6840e-06      0.9990   
  1.6850e-06      0.9990   
  1.6860e-06      0.9990   
  1.6870e-06      0.9991   
  1.6880e-06      0.9991   
  1.6890e-06      0.9991   
  1.6900e-06      0.9991   
  1.6910e-06      0.9992   
  1.6920e-06      0.9992   
  1.6930e-06      0.9992   
  1.6940e-06      0.9992   
  1.6950e-06      0.9992   
  1.6960e-06      0.9993   
  1.6970e-06      0.9993   
  1.6980e-06      0.9993   
  1.6990e-06      0.9993   
  1.7000e-06      0.9993   
  1.7010e-06      0.9994   
  1.7020e-06      0.9994   
  1.7030e-06      0.9994   
  1.7040e-06      0.9994   
  1.7050e-06      0.9994   
  1.7060e-06      0.9994   
  1.7070e-06      0.9995   
  1.7080e-06      0.9995   
  1.7090e-06      0.9995   
  1.7100e-06      0.9995   
  1.7110e-06      0.9995   
  1.7120e-06      0.9995   
  1.7130e-06      0.9995   
  1.7140e-06      0.9995   
  1.7150e-06      0.9996   
  1.7160e-06      0.9996   
  1.7170e-06      0.9996   
  1.7180e-06      0.9996   
  1.7190e-06      0.9996   
  1.7200e-06      0.9996   
  1.7210e-06      0.9996   
  1.7220e-06      0.9996   
  1.7230e-06      0.9996   
  1.7240e-06      0.9996   
  1.7250e-06      0.9996   
  1.7260e-06      0.9997   
  1.7270e-06      0.9997   
  1.7280e-06      0.9997   
  1.7290e-06      0.9997   
  1.7300e-06      0.9997   
  1.7310e-06      0.9997   
  1.7320e-06      0.9997   
  1.7330e-06      0.9997   
  1.7340e-06      0.9997   
  1.7350e-06      0.9997   
  1.7360e-06      0.9997   
  1.7370e-06      0.9997   
  1.7380e-06      0.9997   
  1.7390e-06      0.9997   
  1.7400e-06      0.9997   
  1.7410e-06      0.9997   
  1.7420e-06      0.9997   
  1.7430e-06      0.9997   
  1.7440e-06      0.9997   
  1.7450e-06      0.9997   
  1.7460e-06      0.9997   
  1.7470e-06      0.9997   
  1.7480e-06      0.9998   
  1.7490e-06      0.9998   
  1.7500e-06      0.9998   
  1.7510e-06      0.9998   
  1.7520e-06      0.9998   
  1.7530e-06      0.9998   
  1.7540e-06      0.9998   
  1.7550e-06      0.9998   
  1.7560e-06      0.9998   
  1.7570e-06      0.9998   
  1.7580e-06      0.9998   
  1.7590e-06      0.9998   
  1.7600e-06      0.9998   
  1.7610e-06      0.9998   
  1.7620e-06      0.9998   
  1.7630e-06      0.9998   
  1.7640e-06      0.9998   
  1.7650e-06      0.9998   
  1.7660e-06      0.9998   
  1.7670e-06      0.9998   
  1.7680e-06      0.9998   
  1.7690e-06      0.9998   
  1.7700e-06      0.9998   
  1.7710e-06      0.9998   
  1.7720e-06      0.9998   
  1.7730e-06      0.9998   
  1.7740e-06      0.9998   
  1.7750e-06      0.9998   
  1.7760e-06      0.9998   
  1.7770e-06      0.9998   
  1.7780e-06      0.9998   
  1.7790e-06      0.9998   
  1.7800e-06      0.9998   
  1.7810e-06      0.9998   
  1.7820e-06      0.9998   
  1.7830e-06      0.9998   
  1.7840e-06      0.9998   
  1.7850e-06      0.9998   
  1.7860e-06      0.9998   
  1.7870e-06      0.9998   
  1.7880e-06      0.9998   
  1.7890e-06      0.9998   
  1.7900e-06      0.9998   
  1.7910e-06      0.9998   
  1.7920e-06      0.9998   
  1.7930e-06      0.9998   
  1.7940e-06      0.9998   
  1.7950e-06      0.9998   
  1.7960e-06      0.9998   
  1.7970e-06      0.9998   
  1.7980e-06      0.9998   
  1.7990e-06      0.9998   
  1.8000e-06      0.9998   
  1.8010e-06      0.9998   
  1.8020e-06      0.9998   
  1.8030e-06      0.9998   
  1.8040e-06      0.9998   
  1.8050e-06      0.9998   
  1.8060e-06      0.9998   
  1.8070e-06      0.9998   
  1.8080e-06      0.9998   
  1.8090e-06      0.9998   
  1.8100e-06      0.9998   
  1.8110e-06      0.9998   
  1.8120e-06      0.9998   
  1.8130e-06      0.9998   
  1.8140e-06      0.9998   
  1.8150e-06      0.9998   
  1.8160e-06      0.9998   
  1.8170e-06      0.9998   
  1.8180e-06      0.9998   
  1.8190e-06      0.9998   
  1.8200e-06      0.9998   
  1.8210e-06      0.9998   
  1.8220e-06      0.9998   
  1.8230e-06      0.9998   
  1.8240e-06      0.9998   
  1.8250e-06      0.9998   
  1.8260e-06      0.9998   
  1.8270e-06      0.9998   
  1.8280e-06      0.9998   
  1.8290e-06      0.9998   
  1.8300e-06      0.9998   
  1.8310e-06      0.9998   
  1.8320e-06      0.9998   
  1.8330e-06      0.9998   
  1.8340e-06      0.9998   
  1.8350e-06      0.9998   
  1.8360e-06      0.9998   
  1.8370e-06      0.9998   
  1.8380e-06      0.9998   
  1.8390e-06      0.9998   
  1.8400e-06      0.9998   
  1.8410e-06      0.9998   
  1.8420e-06      0.9998   
  1.8430e-06      0.9998   
  1.8440e-06      0.9998   
  1.8450e-06      0.9998   
  1.8460e-06      0.9997   
  1.8470e-06      0.9997   
  1.8480e-06      0.9997   
  1.8490e-06      0.9998   
  1.8500e-06      0.9998   
  1.8510e-06      0.9998   
  1.8520e-06      0.9998   
  1.8530e-06      0.9998   
  1.8540e-06      0.9998   
  1.8550e-06      0.9998   
  1.8560e-06      0.9998   
  1.8570e-06      0.9998   
  1.8580e-06      0.9998   
  1.8590e-06      0.9998   
  1.8600e-06      0.9998   
  1.8610e-06      0.9998   
  1.8620e-06      0.9998   
  1.8630e-06      0.9998   
  1.8640e-06      0.9998   
  1.8650e-06      0.9998   
  1.8660e-06      0.9998   
  1.8670e-06      0.9999   
  1.8680e-06      0.9999   
  1.8690e-06      0.9999   
  1.8700e-06      0.9999   
  1.8710e-06      0.9999   
  1.8720e-06      0.9999   
  1.8730e-06      0.9999   
  1.8740e-06      0.9999   
  1.8750e-06      0.9999   
  1.8760e-06      0.9999   
  1.8770e-06      0.9999   
  1.8780e-06      0.9999   
  1.8790e-06      0.9999   
  1.8800e-06      1.0000   
  1.8810e-06      1.0001   
  1.8820e-06      1.0002   
  1.8830e-06      1.0002   
  1.8840e-06      1.0003   
  1.8850e-06      1.0004   
  1.8860e-06      1.0004   
  1.8870e-06      1.0005   
  1.8880e-06      1.0006   
  1.8890e-06      1.0007   
  1.8900e-06      1.0007   
  1.8910e-06      1.0008   
  1.8920e-06      1.0009   
  1.8930e-06      1.0010   
  1.8940e-06      1.0009   
  1.8950e-06      1.0007   
  1.8960e-06      1.0005   
  1.8970e-06      1.0004   
  1.8980e-06      1.0002   
  1.8990e-06      1.0000   
  1.9000e-06      0.9999   
  1.9010e-06      0.9997   
  1.9020e-06      0.9995   
  1.9030e-06      0.9992   
  1.9040e-06      0.9990   
  1.9050e-06      0.9987   
  1.9060e-06      0.9984   
  1.9070e-06      0.9981   
  1.9080e-06      0.9979   
  1.9090e-06      0.9976   
  1.9100e-06      0.9973   
  1.9110e-06      0.9970   
  1.9120e-06      0.9968   
  1.9130e-06      0.9967   
  1.9140e-06      0.9965   
  1.9150e-06      0.9963   
  1.9160e-06      0.9961   
  1.9170e-06      0.9959   
  1.9180e-06      0.9957   
  1.9190e-06      0.9955   
  1.9200e-06      0.9954   
  1.9210e-06      0.9952   
  1.9220e-06      0.9951   
  1.9230e-06      0.9949   
  1.9240e-06      0.9947   
  1.9250e-06      0.9944   
  1.9260e-06      0.9941   
  1.9270e-06      0.9940   
  1.9280e-06      0.9940   
  1.9290e-06      0.9940   
  1.9300e-06      0.9940   
  1.9310e-06      0.9940   
  1.9320e-06      0.9940   
  1.9330e-06      0.9940   
  1.9340e-06      0.9940   
  1.9350e-06      0.9940   
  1.9360e-06      0.9940   
  1.9370e-06      0.9958   
  1.9380e-06      0.9980   
  1.9390e-06      1.0002   
  1.9400e-06      1.0025   
  1.9410e-06      1.0047   
  1.9420e-06      1.0070   
  1.9430e-06      1.0092   
  1.9440e-06      1.0115   
  1.9450e-06      1.0137   
  1.9460e-06      1.0169   
  1.9470e-06      1.0205   
  1.9480e-06      1.0242   
  1.9490e-06      1.0279   
  1.9500e-06      1.0316   
  1.9510e-06      1.0352   
  1.9520e-06      1.0389   
  1.9530e-06      1.0426   
  1.9540e-06      1.0456   
  1.9550e-06      1.0447   
  1.9560e-06      1.0437   
  1.9570e-06      1.0427   
  1.9580e-06      1.0418   
  1.9590e-06      1.0408   
  1.9600e-06      1.0398   
  1.9610e-06      1.0388   
  1.9620e-06      1.0379   
  1.9630e-06      1.0358   
  1.9640e-06      1.0283   
  1.9650e-06      1.0209   
  1.9660e-06      1.0134   
  1.9670e-06      1.0060   
  1.9680e-06      0.9985   
  1.9690e-06      0.9911   
  1.9700e-06      0.9827   
  1.9710e-06      0.9693   
  1.9720e-06      0.9560   
  1.9730e-06      0.9426   
  1.9740e-06      0.9293   
  1.9750e-06      0.9160   
  1.9760e-06      0.9026   
  1.9770e-06      0.8893   
  1.9780e-06      0.8759   
  1.9790e-06      0.8575   
  1.9800e-06      0.8318   
  1.9810e-06      0.8061   
  1.9820e-06      0.7804   
  1.9830e-06      0.7547   
  1.9840e-06      0.7290   
  1.9850e-06      0.7033   
  1.9860e-06      0.6776   
  1.9870e-06      0.6519   
  1.9880e-06      0.6262   
  1.9890e-06      0.6005   
  1.9900e-06      0.5748   
  1.9910e-06      0.5491   
  1.9920e-06      0.5234   
  1.9930e-06      0.4967   
  1.9940e-06      0.4695   
  1.9950e-06      0.4424   
  1.9960e-06      0.4152   
  1.9970e-06      0.3881   
  1.9980e-06      0.3609   
  1.9990e-06      0.3338   
  2.0000e-06      0.3067   
  2.0010e-06      0.2795   
  2.0020e-06      0.2524   
  2.0030e-06      0.2252   
  2.0040e-06      0.1981   
  2.0050e-06      0.1743   
  2.0060e-06      0.1558   
  2.0070e-06      0.1375   
  2.0080e-06      0.1219   
  2.0090e-06      0.1063   
  2.0100e-06    9.866e-02  
  2.0110e-06    9.138e-02  
  2.0120e-06    8.410e-02  
  2.0130e-06    7.682e-02  
  2.0140e-06    6.954e-02  
  2.0150e-06    6.226e-02  
  2.0160e-06    5.643e-02  
  2.0170e-06    5.497e-02  
  2.0180e-06    5.352e-02  
  2.0190e-06    5.206e-02  
  2.0200e-06    5.061e-02  
  2.0210e-06    4.915e-02  
  2.0220e-06    4.770e-02  
  2.0230e-06    4.640e-02  
  2.0240e-06    4.567e-02  
  2.0250e-06    4.494e-02  
  2.0260e-06    4.421e-02  
  2.0270e-06    4.349e-02  
  2.0280e-06    4.276e-02  
  2.0290e-06    4.203e-02  
  2.0300e-06    4.130e-02  
  2.0310e-06    4.057e-02  
  2.0320e-06    3.993e-02  
  2.0330e-06    3.932e-02  
  2.0340e-06    3.870e-02  
  2.0350e-06    3.808e-02  
  2.0360e-06    3.746e-02  
  2.0370e-06    3.684e-02  
  2.0380e-06    3.622e-02  
  2.0390e-06    3.560e-02  
  2.0400e-06    3.498e-02  
  2.0410e-06    3.436e-02  
  2.0420e-06    3.393e-02  
  2.0430e-06    3.353e-02  
  2.0440e-06    3.313e-02  
  2.0450e-06    3.273e-02  
  2.0460e-06    3.233e-02  
  2.0470e-06    3.193e-02  
  2.0480e-06    3.153e-02  
  2.0490e-06    3.113e-02  
  2.0500e-06    3.073e-02  
  2.0510e-06    3.033e-02  
  2.0520e-06    2.993e-02  
  2.0530e-06    2.953e-02  
  2.0540e-06    2.913e-02  
  2.0550e-06    2.873e-02  
  2.0560e-06    2.776e-02  
  2.0570e-06    2.670e-02  
  2.0580e-06    2.564e-02  
  2.0590e-06    2.459e-02  
  2.0600e-06    2.353e-02  
  2.0610e-06    2.247e-02  
  2.0620e-06    2.142e-02  
  2.0630e-06    2.036e-02  
  2.0640e-06    1.930e-02  
  2.0650e-06    1.825e-02  
  2.0660e-06    1.719e-02  
  2.0670e-06    1.614e-02  
  2.0680e-06    1.508e-02  
  2.0690e-06    1.402e-02  
  2.0700e-06    1.297e-02  
  2.0710e-06    1.223e-02  
  2.0720e-06    1.278e-02  
  2.0730e-06    1.333e-02  
  2.0740e-06    1.388e-02  
  2.0750e-06    1.443e-02  
  2.0760e-06    1.498e-02  
  2.0770e-06    1.553e-02  
  2.0780e-06    1.608e-02  
  2.0790e-06    1.663e-02  
  2.0800e-06    1.658e-02  
  2.0810e-06    1.637e-02  
  2.0820e-06    1.616e-02  
  2.0830e-06    1.595e-02  
  2.0840e-06    1.574e-02  
  2.0850e-06    1.553e-02  
  2.0860e-06    1.532e-02  
  2.0870e-06    1.511e-02  
  2.0880e-06    1.490e-02  
  2.0890e-06    1.469e-02  
  2.0900e-06    1.444e-02  
  2.0910e-06    1.419e-02  
  2.0920e-06    1.395e-02  
  2.0930e-06    1.373e-02  
  2.0940e-06    1.351e-02  
  2.0950e-06    1.328e-02  
  2.0960e-06    1.310e-02  
  2.0970e-06    1.294e-02  
  2.0980e-06    1.277e-02  
  2.0990e-06    1.260e-02  
  2.1000e-06    1.243e-02  
  2.1010e-06    1.226e-02  
  2.1020e-06    1.210e-02  
  2.1030e-06    1.193e-02  
  2.1040e-06    1.176e-02  
  2.1050e-06    1.159e-02  
  2.1060e-06    1.142e-02  
  2.1070e-06    1.128e-02  
  2.1080e-06    1.114e-02  
  2.1090e-06    1.099e-02  
  2.1100e-06    1.085e-02  
  2.1110e-06    1.071e-02  
  2.1120e-06    1.057e-02  
  2.1130e-06    1.042e-02  
  2.1140e-06    1.028e-02  
  2.1150e-06    1.016e-02  
  2.1160e-06    1.006e-02  
  2.1170e-06    9.965e-03  
  2.1180e-06    9.867e-03  
  2.1190e-06    9.770e-03  
  2.1200e-06    9.673e-03  
  2.1210e-06    9.576e-03  
  2.1220e-06    9.479e-03  
  2.1230e-06    9.382e-03  
  2.1240e-06    9.284e-03  
  2.1250e-06    9.206e-03  
  2.1260e-06    9.204e-03  
  2.1270e-06    9.203e-03  
  2.1280e-06    9.201e-03  
  2.1290e-06    9.199e-03  
  2.1300e-06    9.197e-03  
  2.1310e-06    9.196e-03  
  2.1320e-06    9.194e-03  
  2.1330e-06    9.179e-03  
  2.1340e-06    9.123e-03  
  2.1350e-06    9.067e-03  
  2.1360e-06    9.011e-03  
  2.1370e-06    8.954e-03  
  2.1380e-06    8.898e-03  
  2.1390e-06    8.842e-03  
  2.1400e-06    8.786e-03  
  2.1410e-06    8.729e-03  
  2.1420e-06    8.680e-03  
  2.1430e-06    8.634e-03  
  2.1440e-06    8.589e-03  
  2.1450e-06    8.543e-03  
  2.1460e-06    8.498e-03  
  2.1470e-06    8.452e-03  
  2.1480e-06    8.407e-03  
  2.1490e-06    8.362e-03  
  2.1500e-06    8.326e-03  
  2.1510e-06    8.304e-03  
  2.1520e-06    8.281e-03  
  2.1530e-06    8.258e-03  
  2.1540e-06    8.235e-03  
  2.1550e-06    8.212e-03  
  2.1560e-06    8.189e-03  
  2.1570e-06    8.167e-03  
  2.1580e-06    8.144e-03  
  2.1590e-06    8.121e-03  
  2.1600e-06    8.098e-03  
  2.1610e-06    8.078e-03  
  2.1620e-06    8.065e-03  
  2.1630e-06    8.052e-03  
  2.1640e-06    8.039e-03  
  2.1650e-06    8.025e-03  
  2.1660e-06    8.012e-03  
  2.1670e-06    7.999e-03  
  2.1680e-06    7.986e-03  
  2.1690e-06    7.972e-03  
  2.1700e-06    7.959e-03  
  2.1710e-06    7.946e-03  
  2.1720e-06    7.933e-03  
  2.1730e-06    7.919e-03  
  2.1740e-06    7.908e-03  
  2.1750e-06    7.899e-03  
  2.1760e-06    7.891e-03  
  2.1770e-06    7.882e-03  
  2.1780e-06    7.874e-03  
  2.1790e-06    7.865e-03  
  2.1800e-06    7.857e-03  
  2.1810e-06    7.849e-03  
  2.1820e-06    7.840e-03  
  2.1830e-06    7.832e-03  
  2.1840e-06    7.823e-03  
  2.1850e-06    7.815e-03  
  2.1860e-06    7.806e-03  
  2.1870e-06    7.798e-03  
  2.1880e-06    7.797e-03  
  2.1890e-06    7.798e-03  
  2.1900e-06    7.796e-03  
  2.1910e-06    7.793e-03  
  2.1920e-06    7.786e-03  
  2.1930e-06    7.779e-03  
  2.1940e-06    7.772e-03  
  2.1950e-06    7.765e-03  
  2.1960e-06    7.758e-03  
  2.1970e-06    7.751e-03  
  2.1980e-06    7.746e-03  
  2.1990e-06    7.740e-03  
  2.2000e-06    7.734e-03  
  2.2010e-06    7.729e-03  
  2.2020e-06    7.723e-03  
  2.2030e-06    7.718e-03  
  2.2040e-06    7.712e-03  
  2.2050e-06    7.706e-03  
  2.2060e-06    7.702e-03  
  2.2070e-06    7.699e-03  
  2.2080e-06    7.697e-03  
  2.2090e-06    7.694e-03  
  2.2100e-06    7.692e-03  
  2.2110e-06    7.690e-03  
  2.2120e-06    7.687e-03  
  2.2130e-06    7.685e-03  
  2.2140e-06    7.682e-03  
  2.2150e-06    7.680e-03  
  2.2160e-06    7.677e-03  
  2.2170e-06    7.675e-03  
  2.2180e-06    7.674e-03  
  2.2190e-06    7.672e-03  
  2.2200e-06    7.670e-03  
  2.2210e-06    7.668e-03  
  2.2220e-06    7.666e-03  
  2.2230e-06    7.664e-03  
  2.2240e-06    7.663e-03  
  2.2250e-06    7.661e-03  
  2.2260e-06    7.659e-03  
  2.2270e-06    7.657e-03  
  2.2280e-06    7.655e-03  
  2.2290e-06    7.653e-03  
  2.2300e-06    7.652e-03  
  2.2310e-06    7.651e-03  
  2.2320e-06    7.649e-03  
  2.2330e-06    7.648e-03  
  2.2340e-06    7.647e-03  
  2.2350e-06    7.645e-03  
  2.2360e-06    7.644e-03  
  2.2370e-06    7.643e-03  
  2.2380e-06    7.641e-03  
  2.2390e-06    7.640e-03  
  2.2400e-06    7.639e-03  
  2.2410e-06    7.637e-03  
  2.2420e-06    7.636e-03  
  2.2430e-06    7.634e-03  
  2.2440e-06    7.633e-03  
  2.2450e-06    7.632e-03  
  2.2460e-06    7.631e-03  
  2.2470e-06    7.630e-03  
  2.2480e-06    7.630e-03  
  2.2490e-06    7.629e-03  
  2.2500e-06    7.628e-03  
  2.2510e-06    7.627e-03  
  2.2520e-06    7.627e-03  
  2.2530e-06    7.626e-03  
  2.2540e-06    7.625e-03  
  2.2550e-06    7.624e-03  
  2.2560e-06    7.624e-03  
  2.2570e-06    7.623e-03  
  2.2580e-06    7.623e-03  
  2.2590e-06    7.622e-03  
  2.2600e-06    7.621e-03  
  2.2610e-06    7.621e-03  
  2.2620e-06    7.620e-03  
  2.2630e-06    7.620e-03  
  2.2640e-06    7.619e-03  
  2.2650e-06    7.619e-03  
  2.2660e-06    7.619e-03  
  2.2670e-06    7.618e-03  
  2.2680e-06    7.618e-03  
  2.2690e-06    7.618e-03  
  2.2700e-06    7.618e-03  
  2.2710e-06    7.617e-03  
  2.2720e-06    7.617e-03  
  2.2730e-06    7.616e-03  
  2.2740e-06    7.616e-03  
  2.2750e-06    7.616e-03  
  2.2760e-06    7.615e-03  
  2.2770e-06    7.615e-03  
  2.2780e-06    7.614e-03  
  2.2790e-06    7.614e-03  
  2.2800e-06    7.613e-03  
  2.2810e-06    7.613e-03  
  2.2820e-06    7.612e-03  
  2.2830e-06    7.612e-03  
  2.2840e-06    7.611e-03  
  2.2850e-06    7.611e-03  
  2.2860e-06    7.612e-03  
  2.2870e-06    7.612e-03  
  2.2880e-06    7.612e-03  
  2.2890e-06    7.612e-03  
  2.2900e-06    7.612e-03  
  2.2910e-06    7.613e-03  
  2.2920e-06    7.613e-03  
  2.2930e-06    7.613e-03  
  2.2940e-06    7.613e-03  
  2.2950e-06    7.614e-03  
  2.2960e-06    7.614e-03  
  2.2970e-06    7.614e-03  
  2.2980e-06    7.613e-03  
  2.2990e-06    7.611e-03  
  2.3000e-06    7.609e-03  
  2.3010e-06    7.607e-03  
  2.3020e-06    7.605e-03  
  2.3030e-06    7.603e-03  
  2.3040e-06    7.601e-03  
  2.3050e-06    7.599e-03  
  2.3060e-06    7.597e-03  
  2.3070e-06    7.596e-03  
  2.3080e-06    7.595e-03  
  2.3090e-06    7.595e-03  
  2.3100e-06    7.595e-03  
  2.3110e-06    7.595e-03  
  2.3120e-06    7.594e-03  
  2.3130e-06    7.594e-03  
  2.3140e-06    7.594e-03  
  2.3150e-06    7.593e-03  
  2.3160e-06    7.594e-03  
  2.3170e-06    7.597e-03  
  2.3180e-06    7.600e-03  
  2.3190e-06    7.603e-03  
  2.3200e-06    7.607e-03  
  2.3210e-06    7.610e-03  
  2.3220e-06    7.613e-03  
  2.3230e-06    7.616e-03  
  2.3240e-06    7.618e-03  
  2.3250e-06    7.619e-03  
  2.3260e-06    7.619e-03  
  2.3270e-06    7.620e-03  
  2.3280e-06    7.621e-03  
  2.3290e-06    7.621e-03  
  2.3300e-06    7.622e-03  
  2.3310e-06    7.623e-03  
  2.3320e-06    7.623e-03  
  2.3330e-06    7.624e-03  
  2.3340e-06    7.624e-03  
  2.3350e-06    7.624e-03  
  2.3360e-06    7.623e-03  
  2.3370e-06    7.623e-03  
  2.3380e-06    7.623e-03  
  2.3390e-06    7.623e-03  
  2.3400e-06    7.623e-03  
  2.3410e-06    7.623e-03  
  2.3420e-06    7.623e-03  
  2.3430e-06    7.623e-03  
  2.3440e-06    7.623e-03  
  2.3450e-06    7.623e-03  
  2.3460e-06    7.623e-03  
  2.3470e-06    7.626e-03  
  2.3480e-06    7.634e-03  
  2.3490e-06    7.642e-03  
  2.3500e-06    7.650e-03  
  2.3510e-06    7.658e-03  
  2.3520e-06    7.666e-03  
  2.3530e-06    7.673e-03  
  2.3540e-06    7.681e-03  
  2.3550e-06    7.689e-03  
  2.3560e-06    7.697e-03  
  2.3570e-06    7.705e-03  
  2.3580e-06    7.713e-03  
  2.3590e-06    7.721e-03  
  2.3600e-06    7.729e-03  
  2.3610e-06    7.737e-03  
  2.3620e-06    7.745e-03  
  2.3630e-06    7.699e-03  
  2.3640e-06    7.631e-03  
  2.3650e-06    7.564e-03  
  2.3660e-06    7.496e-03  
  2.3670e-06    7.429e-03  
  2.3680e-06    7.361e-03  
  2.3690e-06    7.294e-03  
  2.3700e-06    7.226e-03  
  2.3710e-06    7.170e-03  
  2.3720e-06    7.132e-03  
  2.3730e-06    7.100e-03  
  2.3740e-06    7.080e-03  
  2.3750e-06    7.059e-03  
  2.3760e-06    7.049e-03  
  2.3770e-06    7.067e-03  
  2.3780e-06    7.085e-03  
  2.3790e-06    7.104e-03  
  2.3800e-06    7.122e-03  
  2.3810e-06    7.141e-03  
  2.3820e-06    7.159e-03  
  2.3830e-06    7.178e-03  
  2.3840e-06    7.196e-03  
  2.3850e-06    7.214e-03  
  2.3860e-06    7.230e-03  
  2.3870e-06    7.242e-03  
  2.3880e-06    7.253e-03  
  2.3890e-06    7.265e-03  
  2.3900e-06    7.276e-03  
  2.3910e-06    7.288e-03  
  2.3920e-06    7.300e-03  
  2.3930e-06    7.311e-03  
  2.3940e-06    7.323e-03  
  2.3950e-06    7.334e-03  
  2.3960e-06    7.346e-03  
  2.3970e-06    7.357e-03  
  2.3980e-06    7.452e-03  
  2.3990e-06    7.667e-03  
  2.4000e-06    7.882e-03  
  2.4010e-06    8.097e-03  
  2.4020e-06    8.312e-03  
  2.4030e-06    8.527e-03  
  2.4040e-06    8.742e-03  
  2.4050e-06    8.957e-03  
  2.4060e-06    9.172e-03  
  2.4070e-06    9.387e-03  
  2.4080e-06    9.602e-03  
  2.4090e-06    9.817e-03  
  2.4100e-06    1.007e-02  
  2.4110e-06    1.056e-02  
  2.4120e-06    1.105e-02  
  2.4130e-06    1.154e-02  
  2.4140e-06    1.203e-02  
  2.4150e-06    1.252e-02  
  2.4160e-06    1.302e-02  
  2.4170e-06    1.351e-02  
  2.4180e-06    1.400e-02  
  2.4190e-06    1.449e-02  
  2.4200e-06    1.498e-02  
  2.4210e-06    1.446e-02  
  2.4220e-06    1.349e-02  
  2.4230e-06    1.252e-02  
  2.4240e-06    1.154e-02  
  2.4250e-06    1.057e-02  
  2.4260e-06    9.597e-03  
  2.4270e-06    8.624e-03  
  2.4280e-06    7.651e-03  
  2.4290e-06    6.678e-03  
  2.4300e-06    5.173e-03  
  2.4310e-06    3.417e-03  
  2.4320e-06    1.662e-03  
  2.4330e-06   -9.352e-05  
  2.4340e-06   -1.849e-03  
  2.4350e-06   -3.604e-03  
  2.4360e-06   -5.360e-03  
  2.4370e-06   -7.115e-03  
  2.4380e-06   -8.812e-03  
  2.4390e-06   -1.050e-02  
  2.4400e-06   -1.219e-02  
  2.4410e-06   -1.387e-02  
  2.4420e-06   -1.556e-02  
  2.4430e-06   -1.725e-02  
  2.4440e-06   -1.893e-02  
  2.4450e-06   -2.062e-02  
  2.4460e-06   -2.253e-02  
  2.4470e-06   -2.450e-02  
  2.4480e-06   -2.647e-02  
  2.4490e-06   -2.845e-02  
  2.4500e-06   -3.042e-02  
  2.4510e-06   -3.239e-02  
  2.4520e-06   -3.436e-02  
  2.4530e-06   -3.634e-02  
  2.4540e-06   -3.831e-02  
  2.4550e-06   -4.028e-02  
  2.4560e-06   -4.226e-02  
  2.4570e-06   -4.423e-02  
  2.4580e-06   -4.620e-02  
  2.4590e-06   -4.706e-02  
  2.4600e-06   -4.710e-02  
  2.4610e-06   -4.597e-02  
  2.4620e-06   -4.365e-02  
  2.4630e-06   -4.132e-02  
  2.4640e-06   -3.529e-02  
  2.4650e-06   -1.876e-02  
  2.4660e-06   -2.232e-03  
  2.4670e-06    1.430e-02  
  2.4680e-06    3.082e-02  
  2.4690e-06    4.735e-02  
  2.4700e-06    6.388e-02  
  2.4710e-06    8.041e-02  
  2.4720e-06    9.739e-02  
  2.4730e-06      0.1259   
  2.4740e-06      0.1545   
  2.4750e-06      0.1830   
  2.4760e-06      0.2116   
  2.4770e-06      0.2401   
  2.4780e-06      0.2686   
  2.4790e-06      0.2943   
  2.4800e-06      0.3157   
  2.4810e-06      0.3370   
  2.4820e-06      0.3583   
  2.4830e-06      0.3797   
  2.4840e-06      0.4010   
  2.4850e-06      0.4223   
  2.4860e-06      0.4437   
  2.4870e-06      0.4650   
  2.4880e-06      0.4811   
  2.4890e-06      0.4966   
  2.4900e-06      0.5121   
  2.4910e-06      0.5276   
  2.4920e-06      0.5430   
  2.4930e-06      0.5585   
  2.4940e-06      0.5734   
  2.4950e-06      0.5851   
  2.4960e-06      0.5968   
  2.4970e-06      0.6084   
  2.4980e-06      0.6201   
  2.4990e-06      0.6318   
  2.5000e-06      0.6434   
  2.5010e-06      0.6551   
  2.5020e-06      0.6668   
  2.5030e-06      0.6785   
  2.5040e-06      0.6886   
  2.5050e-06      0.6986   
  2.5060e-06      0.7086   
  2.5070e-06      0.7187   
  2.5080e-06      0.7287   
  2.5090e-06      0.7387   
  2.5100e-06      0.7487   
  2.5110e-06      0.7587   
  2.5120e-06      0.7688   
  2.5130e-06      0.7788   
  2.5140e-06      0.7888   
  2.5150e-06      0.7988   
  2.5160e-06      0.8088   
  2.5170e-06      0.8181   
  2.5180e-06      0.8219   
  2.5190e-06      0.8258   
  2.5200e-06      0.8296   
  2.5210e-06      0.8334   
  2.5220e-06      0.8373   
  2.5230e-06      0.8411   
  2.5240e-06      0.8449   
  2.5250e-06      0.8487   
  2.5260e-06      0.8526   
  2.5270e-06      0.8564   
  2.5280e-06      0.8602   
  2.5290e-06      0.8641   
  2.5300e-06      0.8668   
  2.5310e-06      0.8689   
  2.5320e-06      0.8711   
  2.5330e-06      0.8732   
  2.5340e-06      0.8753   
  2.5350e-06      0.8774   
  2.5360e-06      0.8795   
  2.5370e-06      0.8817   
  2.5380e-06      0.8838   
  2.5390e-06      0.8859   
  2.5400e-06      0.8900   
  2.5410e-06      0.8941   
  2.5420e-06      0.8982   
  2.5430e-06      0.9023   
  2.5440e-06      0.9059   
  2.5450e-06      0.9092   
  2.5460e-06      0.9126   
  2.5470e-06      0.9160   
  2.5480e-06      0.9194   
  2.5490e-06      0.9227   
  2.5500e-06      0.9261   
  2.5510e-06      0.9287   
  2.5520e-06      0.9310   
  2.5530e-06      0.9334   
  2.5540e-06      0.9357   
  2.5550e-06      0.9380   
  2.5560e-06      0.9404   
  2.5570e-06      0.9427   
  2.5580e-06      0.9450   
  2.5590e-06      0.9474   
  2.5600e-06      0.9497   
[...]
  9.3640e-06    1.257e-02  
  9.3650e-06    1.306e-02  
  9.3660e-06    1.355e-02  
  9.3670e-06    1.404e-02  
  9.3680e-06    1.453e-02  
  9.3690e-06    1.502e-02  
  9.3700e-06    1.434e-02  
  9.3710e-06    1.338e-02  
  9.3720e-06    1.243e-02  
  9.3730e-06    1.148e-02  
  9.3740e-06    1.053e-02  
  9.3750e-06    9.575e-03  
  9.3760e-06    8.622e-03  
  9.3770e-06    7.670e-03  
  9.3780e-06    6.539e-03  
  9.3790e-06    4.791e-03  
  9.3800e-06    3.042e-03  
  9.3810e-06    1.293e-03  
  9.3820e-06   -4.558e-04  
  9.3830e-06   -2.205e-03  
  9.3840e-06   -3.953e-03  
  9.3850e-06   -5.702e-03  
  9.3860e-06   -7.451e-03  
  9.3870e-06   -9.160e-03  
  9.3880e-06   -1.086e-02  
  9.3890e-06   -1.255e-02  
  9.3900e-06   -1.425e-02  
  9.3910e-06   -1.594e-02  
  9.3920e-06   -1.764e-02  
  9.3930e-06   -1.934e-02  
  9.3940e-06   -2.103e-02  
  9.3950e-06   -2.292e-02  
  9.3960e-06   -2.490e-02  
  9.3970e-06   -2.688e-02  
  9.3980e-06   -2.886e-02  
  9.3990e-06   -3.083e-02  
  9.4000e-06   -3.281e-02  
  9.4010e-06   -3.479e-02  
  9.4020e-06   -3.677e-02  
  9.4030e-06   -3.874e-02  
  9.4040e-06   -4.072e-02  
  9.4050e-06   -4.270e-02  
  9.4060e-06   -4.468e-02  
  9.4070e-06   -4.666e-02  
  9.4080e-06   -4.720e-02  
  9.4090e-06   -4.712e-02  
  9.4100e-06   -4.556e-02  
  9.4110e-06   -4.302e-02  
  9.4120e-06   -4.047e-02  
  9.4130e-06   -3.317e-02  
  9.4140e-06   -1.623e-02  
  9.4150e-06    6.995e-04  
  9.4160e-06    1.763e-02  
  9.4170e-06    3.456e-02  
  9.4180e-06    5.150e-02  
  9.4190e-06    6.843e-02  
  9.4200e-06    8.536e-02  
  9.4210e-06      0.1039   
  9.4220e-06      0.1325   
  9.4230e-06      0.1611   
  9.4240e-06      0.1897   
  9.4250e-06      0.2183   
  9.4260e-06      0.2469   
  9.4270e-06      0.2754   
  9.4280e-06      0.3003   
  9.4290e-06      0.3216   
  9.4300e-06      0.3428   
  9.4310e-06      0.3640   
  9.4320e-06      0.3853   
  9.4330e-06      0.4065   
  9.4340e-06      0.4278   
  9.4350e-06      0.4490   
  9.4360e-06      0.4696   
  9.4370e-06      0.4851   
  9.4380e-06      0.5005   
  9.4390e-06      0.5160   
  9.4400e-06      0.5314   
  9.4410e-06      0.5469   
  9.4420e-06      0.5623   
  9.4430e-06      0.5764   
  9.4440e-06      0.5881   
  9.4450e-06      0.5997   
  9.4460e-06      0.6114   
  9.4470e-06      0.6230   
  9.4480e-06      0.6347   
  9.4490e-06      0.6463   
  9.4500e-06      0.6580   
  9.4510e-06      0.6696   
  9.4520e-06      0.6811   
  9.4530e-06      0.6911   
  9.4540e-06      0.7011   
  9.4550e-06      0.7111   
  9.4560e-06      0.7211   
  9.4570e-06      0.7311   
  9.4580e-06      0.7411   
  9.4590e-06      0.7511   
  9.4600e-06      0.7612   
  9.4610e-06      0.7712   
  9.4620e-06      0.7812   
  9.4630e-06      0.7912   
  9.4640e-06      0.8012   
  9.4650e-06      0.8112   
  9.4660e-06      0.8195   
  9.4670e-06      0.8233   
  9.4680e-06      0.8270   
  9.4690e-06      0.8308   
  9.4700e-06      0.8346   
  9.4710e-06      0.8383   
  9.4720e-06      0.8421   
  9.4730e-06      0.8459   
  9.4740e-06      0.8496   
  9.4750e-06      0.8534   
  9.4760e-06      0.8572   
  9.4770e-06      0.8609   
  9.4780e-06      0.8647   
  9.4790e-06      0.8672   
  9.4800e-06      0.8694   
  9.4810e-06      0.8715   
  9.4820e-06      0.8737   
  9.4830e-06      0.8759   
  9.4840e-06      0.8780   
  9.4850e-06      0.8802   
  9.4860e-06      0.8823   
  9.4870e-06      0.8845   
  9.4880e-06      0.8869   
  9.4890e-06      0.8910   
  9.4900e-06      0.8952   
  9.4910e-06      0.8992   
  9.4920e-06      0.9033   
  9.4930e-06      0.9067   
  9.4940e-06      0.9101   
  9.4950e-06      0.9135   
  9.4960e-06      0.9168   
  9.4970e-06      0.9202   
  9.4980e-06      0.9235   
  9.4990e-06      0.9269   
  9.5000e-06      0.9294   
  9.5010e-06      0.9317   
  9.5020e-06      0.9340   
  9.5030e-06      0.9363   
  9.5040e-06      0.9386   
  9.5050e-06      0.9409   
  9.5060e-06      0.9432   
  9.5070e-06      0.9456   
  9.5080e-06      0.9479   
  9.5090e-06      0.9502   
  9.5100e-06      0.9523   
  9.5110e-06      0.9538   
  9.5120e-06      0.9553   
  9.5130e-06      0.9568   
  9.5140e-06      0.9582   
  9.5150e-06      0.9597   
  9.5160e-06      0.9612   
  9.5170e-06      0.9627   
  9.5180e-06      0.9642   
  9.5190e-06      0.9657   
  9.5200e-06      0.9672   
  9.5210e-06      0.9687   
  9.5220e-06      0.9702   
  9.5230e-06      0.9711   
  9.5240e-06      0.9719   
  9.5250e-06      0.9727   
  9.5260e-06      0.9735   
  9.5270e-06      0.9743   
  9.5280e-06      0.9751   
  9.5290e-06      0.9759   
  9.5300e-06      0.9767   
  9.5310e-06      0.9775   
  9.5320e-06      0.9783   
  9.5330e-06      0.9791   
  9.5340e-06      0.9798   
  9.5350e-06      0.9806   
  9.5360e-06      0.9811   
  9.5370e-06      0.9817   
  9.5380e-06      0.9822   
  9.5390e-06      0.9828   
  9.5400e-06      0.9833   
  9.5410e-06      0.9838   
  9.5420e-06      0.9844   
  9.5430e-06      0.9849   
  9.5440e-06      0.9854   
  9.5450e-06      0.9860   
  9.5460e-06      0.9865   
  9.5470e-06      0.9870   
  9.5480e-06      0.9876   
  9.5490e-06      0.9881   
  9.5500e-06      0.9886   
  9.5510e-06      0.9892   
  9.5520e-06      0.9897   
  9.5530e-06      0.9903   
  9.5540e-06      0.9908   
  9.5550e-06      0.9913   
  9.5560e-06      0.9915   
  9.5570e-06      0.9918   
  9.5580e-06      0.9920   
  9.5590e-06      0.9923   
  9.5600e-06      0.9925   
  9.5610e-06      0.9928   
  9.5620e-06      0.9930   
  9.5630e-06      0.9932   
  9.5640e-06      0.9934   
  9.5650e-06      0.9936   
  9.5660e-06      0.9938   
  9.5670e-06      0.9940   
  9.5680e-06      0.9942   
  9.5690e-06      0.9944   
  9.5700e-06      0.9946   
  9.5710e-06      0.9948   
  9.5720e-06      0.9949   
  9.5730e-06      0.9951   
  9.5740e-06      0.9952   
  9.5750e-06      0.9954   
  9.5760e-06      0.9955   
  9.5770e-06      0.9957   
  9.5780e-06      0.9958   
  9.5790e-06      0.9959   
  9.5800e-06      0.9960   
  9.5810e-06      0.9961   
  9.5820e-06      0.9963   
  9.5830e-06      0.9964   
  9.5840e-06      0.9965   
  9.5850e-06      0.9966   
  9.5860e-06      0.9967   
  9.5870e-06      0.9968   
  9.5880e-06      0.9969   
  9.5890e-06      0.9970   
  9.5900e-06      0.9971   
  9.5910e-06      0.9972   
  9.5920e-06      0.9972   
  9.5930e-06      0.9973   
  9.5940e-06      0.9974   
  9.5950e-06      0.9975   
  9.5960e-06      0.9976   
  9.5970e-06      0.9977   
  9.5980e-06      0.9977   
  9.5990e-06      0.9978   
  9.6000e-06      0.9979   
  9.6010e-06      0.9980   
  9.6020e-06      0.9981   
  9.6030e-06      0.9981   
  9.6040e-06      0.9982   
  9.6050e-06      0.9982   
  9.6060e-06      0.9983   
  9.6070e-06      0.9983   
  9.6080e-06      0.9984   
  9.6090e-06      0.9985   
  9.6100e-06      0.9985   
  9.6110e-06      0.9986   
  9.6120e-06      0.9986   
  9.6130e-06      0.9986   
  9.6140e-06      0.9987   
  9.6150e-06      0.9987   
  9.6160e-06      0.9987   
  9.6170e-06      0.9988   
  9.6180e-06      0.9988   
  9.6190e-06      0.9988   
  9.6200e-06      0.9989   
  9.6210e-06      0.9989   
  9.6220e-06      0.9989   
  9.6230e-06      0.9990   
  9.6240e-06      0.9990   
  9.6250e-06      0.9990   
  9.6260e-06      0.9990   
  9.6270e-06      0.9991   
  9.6280e-06      0.9991   
  9.6290e-06      0.9991   
  9.6300e-06      0.9991   
  9.6310e-06      0.9992   
  9.6320e-06      0.9992   
  9.6330e-06      0.9992   
  9.6340e-06      0.9992   
  9.6350e-06      0.9992   
  9.6360e-06      0.9993   
  9.6370e-06      0.9993   
  9.6380e-06      0.9993   
  9.6390e-06      0.9993   
  9.6400e-06      0.9994   
  9.6410e-06      0.9994   
  9.6420e-06      0.9994   
  9.6430e-06      0.9994   
  9.6440e-06      0.9994   
  9.6450e-06      0.9994   
  9.6460e-06      0.9994   
  9.6470e-06      0.9995   
  9.6480e-06      0.9995   
  9.6490e-06      0.9995   
  9.6500e-06      0.9995   
  9.6510e-06      0.9995   
  9.6520e-06      0.9995   
  9.6530e-06      0.9995   
  9.6540e-06      0.9995   
  9.6550e-06      0.9996   
  9.6560e-06      0.9996   
  9.6570e-06      0.9996   
  9.6580e-06      0.9996   
  9.6590e-06      0.9996   
  9.6600e-06      0.9996   
  9.6610e-06      0.9996   
  9.6620e-06      0.9996   
  9.6630e-06      0.9996   
  9.6640e-06      0.9996   
  9.6650e-06      0.9996   
  9.6660e-06      0.9996   
  9.6670e-06      0.9997   
  9.6680e-06      0.9997   
  9.6690e-06      0.9997   
  9.6700e-06      0.9997   
  9.6710e-06      0.9997   
  9.6720e-06      0.9997   
  9.6730e-06      0.9997   
  9.6740e-06      0.9997   
  9.6750e-06      0.9997   
  9.6760e-06      0.9997   
  9.6770e-06      0.9997   
  9.6780e-06      0.9997   
  9.6790e-06      0.9997   
  9.6800e-06      0.9997   
  9.6810e-06      0.9997   
  9.6820e-06      0.9997   
  9.6830e-06      0.9997   
  9.6840e-06      0.9997   
  9.6850e-06      0.9997   
  9.6860e-06      0.9997   
  9.6870e-06      0.9997   
  9.6880e-06      0.9998   
  9.6890e-06      0.9998   
  9.6900e-06      0.9998   
  9.6910e-06      0.9998   
  9.6920e-06      0.9998   
  9.6930e-06      0.9998   
  9.6940e-06      0.9998   
  9.6950e-06      0.9998   
  9.6960e-06      0.9998   
  9.6970e-06      0.9998   
  9.6980e-06      0.9998   
  9.6990e-06      0.9998   
  9.7000e-06      0.9998   
  9.7010e-06      0.9998   
  9.7020e-06      0.9998   
  9.7030e-06      0.9998   
  9.7040e-06      0.9998   
  9.7050e-06      0.9998   
  9.7060e-06      0.9998   
  9.7070e-06      0.9998   
  9.7080e-06      0.9998   
  9.7090e-06      0.9998   
  9.7100e-06      0.9998   
  9.7110e-06      0.9998   
  9.7120e-06      0.9998   
  9.7130e-06      0.9998   
  9.7140e-06      0.9998   
  9.7150e-06      0.9998   
  9.7160e-06      0.9998   
  9.7170e-06      0.9998   
  9.7180e-06      0.9998   
  9.7190e-06      0.9998   
  9.7200e-06      0.9998   
  9.7210e-06      0.9998   
  9.7220e-06      0.9998   
  9.7230e-06      0.9998   
  9.7240e-06      0.9998   
  9.7250e-06      0.9998   
  9.7260e-06      0.9998   
  9.7270e-06      0.9998   
  9.7280e-06      0.9998   
  9.7290e-06      0.9998   
  9.7300e-06      0.9998   
  9.7310e-06      0.9998   
  9.7320e-06      0.9998   
  9.7330e-06      0.9998   
  9.7340e-06      0.9998   
  9.7350e-06      0.9998   
  9.7360e-06      0.9998   
  9.7370e-06      0.9998   
  9.7380e-06      0.9998   
  9.7390e-06      0.9998   
  9.7400e-06      0.9998   
  9.7410e-06      0.9998   
  9.7420e-06      0.9998   
  9.7430e-06      0.9998   
  9.7440e-06      0.9998   
  9.7450e-06      0.9998   
  9.7460e-06      0.9998   
  9.7470e-06      0.9998   
  9.7480e-06      0.9998   
  9.7490e-06      0.9998   
  9.7500e-06      0.9998   
  9.7510e-06      0.9998   
  9.7520e-06      0.9998   
  9.7530e-06      0.9998   
  9.7540e-06      0.9998   
  9.7550e-06      0.9998   
  9.7560e-06      0.9998   
  9.7570e-06      0.9998   
  9.7580e-06      0.9998   
  9.7590e-06      0.9998   
  9.7600e-06      0.9998   
  9.7610e-06      0.9998   
  9.7620e-06      0.9998   
  9.7630e-06      0.9998   
  9.7640e-06      0.9998   
  9.7650e-06      0.9998   
  9.7660e-06      0.9999   
  9.7670e-06      0.9999   
  9.7680e-06      0.9999   
  9.7690e-06      0.9999   
  9.7700e-06      0.9999   
  9.7710e-06      0.9999   
  9.7720e-06      0.9999   
  9.7730e-06      0.9999   
  9.7740e-06      0.9999   
  9.7750e-06      0.9999   
  9.7760e-06      0.9998   
  9.7770e-06      0.9998   
  9.7780e-06      0.9998   
  9.7790e-06      0.9998   
  9.7800e-06      0.9998   
  9.7810e-06      0.9998   
  9.7820e-06      0.9998   
  9.7830e-06      0.9998   
  9.7840e-06      0.9998   
  9.7850e-06      0.9998   
  9.7860e-06      0.9998   
  9.7870e-06      0.9998   
  9.7880e-06      0.9998   
  9.7890e-06      0.9997   
  9.7900e-06      0.9997   
  9.7910e-06      0.9997   
  9.7920e-06      0.9998   
  9.7930e-06      0.9998   
  9.7940e-06      0.9998   
  9.7950e-06      0.9998   
  9.7960e-06      0.9998   
  9.7970e-06      0.9998   
  9.7980e-06      0.9998   
  9.7990e-06      0.9998   
  9.8000e-06      0.9998   
  9.8010e-06      0.9998   
  9.8020e-06      0.9998   
  9.8030e-06      0.9998   
  9.8040e-06      0.9998   
  9.8050e-06      0.9998   
  9.8060e-06      0.9998   
  9.8070e-06      0.9998   
  9.8080e-06      0.9998   
  9.8090e-06      0.9998   
  9.8100e-06      0.9999   
  9.8110e-06      0.9999   
  9.8120e-06      0.9999   
  9.8130e-06      0.9999   
  9.8140e-06      0.9999   
  9.8150e-06      0.9999   
  9.8160e-06      1.0000   
  9.8170e-06      1.0000   
  9.8180e-06      1.0000   
  9.8190e-06      1.0000   
  9.8200e-06      1.0000   
  9.8210e-06      1.0000   
  9.8220e-06      1.0001   
  9.8230e-06      1.0001   
  9.8240e-06      1.0002   
  9.8250e-06      1.0003   
  9.8260e-06      1.0004   
  9.8270e-06      1.0006   
  9.8280e-06      1.0007   
  9.8290e-06      1.0008   
  9.8300e-06      1.0008   
  9.8310e-06      1.0008   
  9.8320e-06      1.0008   
  9.8330e-06      1.0008   
  9.8340e-06      1.0008   
  9.8350e-06      1.0008   
  9.8360e-06      1.0008   
  9.8370e-06      1.0007   
  9.8380e-06      1.0005   
  9.8390e-06      1.0003   
  9.8400e-06      1.0000   
  9.8410e-06      0.9998   
  9.8420e-06      0.9996   
  9.8430e-06      0.9993   
  9.8440e-06      0.9990   
  9.8450e-06      0.9987   
  9.8460e-06      0.9984   
  9.8470e-06      0.9982   
  9.8480e-06      0.9979   
  9.8490e-06      0.9976   
  9.8500e-06      0.9974   
  9.8510e-06      0.9972   
  9.8520e-06      0.9970   
  9.8530e-06      0.9968   
  9.8540e-06      0.9966   
  9.8550e-06      0.9963   
  9.8560e-06      0.9961   
  9.8570e-06      0.9959   
  9.8580e-06      0.9957   
  9.8590e-06      0.9956   
  9.8600e-06      0.9954   
  9.8610e-06      0.9952   
  9.8620e-06      0.9950   
  9.8630e-06      0.9949   
  9.8640e-06      0.9947   
  9.8650e-06      0.9945   
  9.8660e-06      0.9943   
  9.8670e-06      0.9941   
  9.8680e-06      0.9940   
  9.8690e-06      0.9941   
  9.8700e-06      0.9944   
  9.8710e-06      0.9947   
  9.8720e-06      0.9951   
  9.8730e-06      0.9954   
  9.8740e-06      0.9958   
  9.8750e-06      0.9961   
  9.8760e-06      0.9964   
  9.8770e-06      0.9968   
  9.8780e-06      0.9971   
  9.8790e-06      0.9974   
  9.8800e-06      0.9978   
  9.8810e-06      0.9981   
  9.8820e-06      1.0006   
  9.8830e-06      1.0037   
  9.8840e-06      1.0067   
  9.8850e-06      1.0098   
  9.8860e-06      1.0129   
  9.8870e-06      1.0160   
  9.8880e-06      1.0191   
  9.8890e-06      1.0222   
  9.8900e-06      1.0252   
  9.8910e-06      1.0283   
  9.8920e-06      1.0314   
  9.8930e-06      1.0345   
  9.8940e-06      1.0376   
  9.8950e-06      1.0407   
  9.8960e-06      1.0412   
  9.8970e-06      1.0405   
  9.8980e-06      1.0399   
  9.8990e-06      1.0392   
  9.9000e-06      1.0386   
  9.9010e-06      1.0379   
  9.9020e-06      1.0373   
  9.9030e-06      1.0366   
  9.9040e-06      1.0349   
  9.9050e-06      1.0288   
  9.9060e-06      1.0224   
  9.9070e-06      1.0151   
  9.9080e-06      1.0079   
  9.9090e-06      0.9998   
  9.9100e-06      0.9877   
  9.9110e-06      0.9756   
  9.9120e-06      0.9635   
  9.9130e-06      0.9515   
  9.9140e-06      0.9394   
  9.9150e-06      0.9273   
  9.9160e-06      0.9152   
  9.9170e-06      0.9032   
  9.9180e-06      0.8911   
  9.9190e-06      0.8754   
  9.9200e-06      0.8513   
  9.9210e-06      0.8272   
  9.9220e-06      0.8030   
  9.9230e-06      0.7789   
  9.9240e-06      0.7548   
  9.9250e-06      0.7306   
  9.9260e-06      0.7065   
  9.9270e-06      0.6824   
  9.9280e-06      0.6583   
  9.9290e-06      0.6341   
  9.9300e-06      0.6100   
  9.9310e-06      0.5848   
  9.9320e-06      0.5571   
  9.9330e-06      0.5294   
  9.9340e-06      0.5017   
  9.9350e-06      0.4740   
  9.9360e-06      0.4463   
  9.9370e-06      0.4186   
  9.9380e-06      0.3909   
  9.9390e-06      0.3632   
  9.9400e-06      0.3355   
  9.9410e-06      0.3078   
  9.9420e-06      0.2801   
  9.9430e-06      0.2543   
  9.9440e-06      0.2346   
  9.9450e-06      0.2149   
  9.9460e-06      0.1952   
  9.9470e-06      0.1755   
  9.9480e-06      0.1558   
  9.9490e-06      0.1361   
  9.9500e-06      0.1164   
  9.9510e-06    9.665e-02  
  9.9520e-06    7.695e-02  
  9.9530e-06    5.771e-02  
  9.9540e-06    5.635e-02  
  9.9550e-06    5.499e-02  
  9.9560e-06    5.363e-02  
  9.9570e-06    5.227e-02  
  9.9580e-06    5.091e-02  
  9.9590e-06    4.955e-02  
  9.9600e-06    4.819e-02  
  9.9610e-06    4.683e-02  
  9.9620e-06    4.546e-02  
  9.9630e-06    4.489e-02  
  9.9640e-06    4.440e-02  
  9.9650e-06    4.392e-02  
  9.9660e-06    4.343e-02  
  9.9670e-06    4.294e-02  
  9.9680e-06    4.245e-02  
  9.9690e-06    4.197e-02  
  9.9700e-06    4.145e-02  
  9.9710e-06    4.080e-02  
  9.9720e-06    4.016e-02  
  9.9730e-06    3.952e-02  
  9.9740e-06    3.888e-02  
  9.9750e-06    3.824e-02  
  9.9760e-06    3.759e-02  
  9.9770e-06    3.695e-02  
  9.9780e-06    3.632e-02  
  9.9790e-06    3.596e-02  
  9.9800e-06    3.559e-02  
  9.9810e-06    3.523e-02  
  9.9820e-06    3.486e-02  
  9.9830e-06    3.450e-02  
  9.9840e-06    3.413e-02  
  9.9850e-06    3.377e-02  
  9.9860e-06    3.340e-02  
  9.9870e-06    3.304e-02  
  9.9880e-06    3.267e-02  
  9.9890e-06    3.231e-02  
  9.9900e-06    3.194e-02  
  9.9910e-06    3.158e-02  
  9.9920e-06    3.071e-02  
  9.9930e-06    2.970e-02  
  9.9940e-06    2.870e-02  
  9.9950e-06    2.769e-02  
  9.9960e-06    2.669e-02  
  9.9970e-06    2.568e-02  
  9.9980e-06    2.468e-02  
  9.9990e-06    2.367e-02  
  1.0000e-05    2.267e-02  
y
-----------------------------------------------
 t1= 8.9574e-09
 t2= 2.9854e-06
 period= 9.9214e-07
 delay_per_stage= 2.9181e-08

          ***** job concluded
1****** HSPICE -- G-2012.06 32-BIT (May 27 2012) RHEL32 ******                  
 ******  
 *sample netlist for bsim6.0

  ******  job statistics summary tnom=  25.000 temp=  25.000 *****
  
  
 ******  Machine Information  ******
 CPU:
 model name	: AMD Opteron(tm) Processor 248
 cpu MHz	: 2200.023
  
 OS:
 Linux version 2.6.9-22.EL (bhcompile@crowe.devel.redhat.com) (gcc version 3.4.4 20050721 (Red Hat 3.4.4-2)) #1 Mon Sep 19 17:49:49 EDT 2005


  ******  HSPICE Threads Information  ******

  Command Line Threads Count :     1
  Available CPU Count        :     1
  Actual Threads Count       :     1


  ******  Circuit Statistics  ******
  # nodes       =     325 # elements   =      35
  # resistors   =       0 # capacitors =       0 # inductors   =       0
  # mutual_inds =       0 # vccs       =       0 # vcvs        =       0
  # cccs        =       0 # ccvs       =       0 # volt_srcs   =       1
  # curr_srcs   =       0 # diodes     =       0 # bjts        =       0
  # jfets       =       0 # mosfets    =       0 # U elements  =       0
  # T elements  =       0 # W elements =       0 # B elements  =       0
  # S elements  =       0 # P elements =       0 # va device   =      34
  # vector_srcs =       0 # N elements =       0


  ******  Runtime Statistics (seconds)  ******

  analysis           time    # points   tot. iter  conv.iter
  op point           0.07           1          19
  transient         10.65       10001        3423        1157 rev=         0
  readin             2.68
  errchk             0.22
  setup              0.01
  output             0.03


           peak memory used        115.76 megabytes
           total cpu time           13.66 seconds
           total elapsed time       23.17 seconds
           job started at     21:48:37 05/05/2013
           job ended   at     21:49:00 05/05/2013


 lic: Release hspice token(s) 
 lic: total license checkout elapse time:        0.21(s)


pVA concluded on Sun May  5 21:49:00 2013

