Using: /cad/synopsys/Hspice/G-2012.06/hspice/linux/hspice gummel_pmos.sp
 ****** HSPICE -- G-2012.06 32-BIT (May 27 2012) RHEL32 ******                  
  Copyright (C) 2012 Synopsys, Inc. All Rights Reserved.                        
  Unpublished-rights reserved under US copyright laws.
  This program is protected by law and is subject to the
  terms and conditions of the license agreement from Synopsys.
  Use of this program is your acceptance to be bound by the
  license agreement. HSPICE is the trademark of Synopsys, Inc.
  Input File: gummel_pmos.sp                                                    
  Command line options: gummel_pmos.sp
 lic: No 'setenv LM_LICENSE_FILE' in current environment' 
 lic:  
 lic: FLEXlm: v10.8 
 lic: USER:   agarwalh             HOSTNAME: xcel1.vlsi.iitk.ac.in 
 lic: HOSTID: 0008a1953eea         PID:      845 
 lic: Using FLEXlm license file: 
 lic: 27000@xcel0 
 lic: Checkout 1 hspice 
 lic: License/Maintenance for hspice will expire on 15-jun-2013/2011.09 
 lic: 1(in_use)/5(total) FLOATING license(s) on SERVER xcel0 
 lic:   
 Init: read install configuration file: /cad/synopsys/Hspice/G-2012.06/hspice/meta.cfg


 --------------------------------------------------------
|                                                        |
|          Synopsys Unified Verilog-A (pVA v2.0)         |
|                                                        |
|           Machine Name: xcel1.vlsi.iitk.ac.in          |
| Copyright (c) 2011 Synopsys Inc., All Rights Reserved. |
|                                                        |
 --------------------------------------------------------

libepva built by pvamgr synmake_pva_build  on Tue May  1 20:03:16 PDT 2012
HSP_HOME:   /cad/synopsys/Hspice/G-2012.06/hspice
HSP_ARCH:   linux
HSP_GCC :   /cad/synopsys/Hspice/G-2012.06/hspice/GNU/amd64/gcc-4.5.2-static/bin/gcc -m32 
HSP_GCC_VER:   4.5.2
Working-Dir: /users/phd/agarwalh/synopsys_designs/BSIM6/QA/BSIM6 Release/Release_5_May
Args:        -p hsp -t spi -f gummel_pmos.pvadir/pvaHDL.lis -o gummel_pmos.pvadir 


Begin of pVA compiling on Sun May  5 21:44:50 2013

Parsing './bsim6.va'
Parsing include file '/cad/synopsys/Hspice/G-2012.06/hspice/include/constants.vams'
Parsing include file '/cad/synopsys/Hspice/G-2012.06/hspice/include/disciplines.vams'

End of pVA compiling on Sun May  5 21:44:50 2013


End of build pVA DB on Sun May  5 21:44:50 2013

*pvaI* Module (bsim6): 4 unexpanded port, 0 init, 2191 behav, 65 contrib, 43/2272 expr(s)
*pvaI* Resizing DB size for v count = 1
*pvaI*        Has DIS (SB), 3 afCount
*pvaI*        0 const-G and 0 const-C, Has switch branch.
*pvaI* Module (bsim6): generated 7 flow node(s) during compilation.

End of pVA genC on Sun May  5 21:44:53 2013

*pvaI* #### Total 316 line-size(s), 43 expr(s), 65 contr(s), 0 init(s), 2191 behav(s), 4 port(s)

Generating gummel_pmos.pvadir/pvaRTL_linux.so


End of submitting pVA gummel_pmos.pvadir/pvaRTL.mak on Sun May  5 21:45:02 2013


End of pVA elaboration on Sun May  5 21:45:02 2013

 Loading pVA library gummel_pmos.pvadir/pvaRTL_linux.so...
1****** HSPICE -- G-2012.06 32-BIT (May 27 2012) RHEL32 ******                  
 ******  
 *sample netlist for bsim6.0

  ******  circuit name directory
 circuit number to circuit name directory
   number circuitname                     definition         multiplier
        0 main circuit
        1 x1.                             bsim6(va)          1.00 
*pvaI* Creating Verilog-A module 'bsim6' for X1
  
      
 *****************************************************************
 ******  option summary
 ******
 runlvl  = 3         bypass  = 2         
  Opening plot unit= 15
 file=gummel_pmos.pa0                                                          

 ******  
 *sample netlist for bsim6.0

  ******  dc transfer curves tnom=  25.000 temp=  25.000 *****

   *** source        0:vgate =   -1.0000        ***

x

        volt    param        param        param        param      
                    ids          gx           gx2          gx3    
   -0.10000    -2.349e-05      0.           0.           0.       
 -9.9000e-02   -2.326e-05   -2.349e-02      0.           0.       
 -9.8000e-02   -2.303e-05    2.318e-04    -23.4889       0.       
 -9.7000e-02   -2.279e-05    2.319e-04     23.7207    -2.348e+04  
 -9.6000e-02   -2.256e-05    2.319e-04    8.171e-05    4.721e+04  
 -9.5000e-02   -2.233e-05    2.320e-04    8.120e-05   -2.372e+04  
 -9.4000e-02   -2.210e-05    2.321e-04    8.069e-05   -5.117e-04  
 -9.3000e-02   -2.186e-05    2.322e-04    8.018e-05   -5.122e-04  
 -9.2000e-02   -2.163e-05    2.323e-04    7.966e-05   -5.127e-04  
 -9.1000e-02   -2.140e-05    2.323e-04    7.915e-05   -5.132e-04  
 -9.0000e-02   -2.117e-05    2.324e-04    7.863e-05   -5.138e-04  
 -8.9000e-02   -2.093e-05    2.325e-04    7.812e-05   -5.144e-04  
 -8.8000e-02   -2.070e-05    2.326e-04    7.760e-05   -5.150e-04  
 -8.7000e-02   -2.047e-05    2.327e-04    7.709e-05   -5.157e-04  
 -8.6000e-02   -2.024e-05    2.327e-04    7.657e-05   -5.165e-04  
 -8.5000e-02   -2.000e-05    2.328e-04    7.605e-05   -5.173e-04  
 -8.4000e-02   -1.977e-05    2.329e-04    7.553e-05   -5.182e-04  
 -8.3000e-02   -1.954e-05    2.330e-04    7.501e-05   -5.191e-04  
 -8.2000e-02   -1.930e-05    2.330e-04    7.449e-05   -5.201e-04  
 -8.1000e-02   -1.907e-05    2.331e-04    7.397e-05   -5.212e-04  
 -8.0000e-02   -1.884e-05    2.332e-04    7.345e-05   -5.223e-04  
 -7.9000e-02   -1.861e-05    2.332e-04    7.292e-05   -5.236e-04  
 -7.8000e-02   -1.837e-05    2.333e-04    7.239e-05   -5.249e-04  
 -7.7000e-02   -1.814e-05    2.334e-04    7.187e-05   -5.262e-04  
 -7.6000e-02   -1.790e-05    2.335e-04    7.134e-05   -5.277e-04  
 -7.5000e-02   -1.767e-05    2.335e-04    7.081e-05   -5.293e-04  
 -7.4000e-02   -1.744e-05    2.336e-04    7.027e-05   -5.310e-04  
 -7.3000e-02   -1.720e-05    2.337e-04    6.974e-05   -5.328e-04  
 -7.2000e-02   -1.697e-05    2.337e-04    6.920e-05   -5.347e-04  
 -7.1000e-02   -1.674e-05    2.338e-04    6.866e-05   -5.367e-04  
 -7.0000e-02   -1.650e-05    2.339e-04    6.812e-05   -5.389e-04  
 -6.9000e-02   -1.627e-05    2.339e-04    6.758e-05   -5.412e-04  
 -6.8000e-02   -1.603e-05    2.340e-04    6.703e-05   -5.436e-04  
 -6.7000e-02   -1.580e-05    2.341e-04    6.648e-05   -5.462e-04  
 -6.6000e-02   -1.557e-05    2.341e-04    6.593e-05   -5.490e-04  
 -6.5000e-02   -1.533e-05    2.342e-04    6.538e-05   -5.519e-04  
 -6.4000e-02   -1.510e-05    2.343e-04    6.482e-05   -5.550e-04  
 -6.3000e-02   -1.486e-05    2.343e-04    6.426e-05   -5.583e-04  
 -6.2000e-02   -1.463e-05    2.344e-04    6.369e-05   -5.618e-04  
 -6.1000e-02   -1.439e-05    2.345e-04    6.312e-05   -5.654e-04  
 -6.0000e-02   -1.416e-05    2.345e-04    6.255e-05   -5.693e-04  
 -5.9000e-02   -1.392e-05    2.346e-04    6.197e-05   -5.734e-04  
 -5.8000e-02   -1.369e-05    2.346e-04    6.139e-05   -5.777e-04  
 -5.7000e-02   -1.345e-05    2.347e-04    6.080e-05   -5.823e-04  
 -5.6000e-02   -1.322e-05    2.348e-04    6.021e-05   -5.871e-04  
 -5.5000e-02   -1.299e-05    2.348e-04    5.961e-05   -5.921e-04  
 -5.4000e-02   -1.275e-05    2.349e-04    5.901e-05   -5.974e-04  
 -5.3000e-02   -1.252e-05    2.349e-04    5.840e-05   -6.029e-04  
 -5.2000e-02   -1.228e-05    2.350e-04    5.779e-05   -6.086e-04  
 -5.1000e-02   -1.205e-05    2.350e-04    5.717e-05   -6.145e-04  
 -5.0000e-02   -1.181e-05    2.351e-04    5.654e-05   -6.206e-04  
 -4.9000e-02   -1.157e-05    2.352e-04    5.591e-05   -6.269e-04  
 -4.8000e-02   -1.134e-05    2.352e-04    5.527e-05   -6.333e-04  
 -4.7000e-02   -1.110e-05    2.353e-04    5.462e-05   -6.398e-04  
 -4.6000e-02   -1.087e-05    2.353e-04    5.397e-05   -6.463e-04  
 -4.5000e-02   -1.063e-05    2.354e-04    5.331e-05   -6.527e-04  
 -4.4000e-02   -1.040e-05    2.354e-04    5.264e-05   -6.590e-04  
 -4.3000e-02   -1.016e-05    2.355e-04    5.197e-05   -6.651e-04  
 -4.2000e-02   -9.927e-06    2.355e-04    5.130e-05   -6.708e-04  
 -4.1000e-02   -9.691e-06    2.356e-04    5.061e-05   -6.761e-04  
 -4.0000e-02   -9.456e-06    2.356e-04    4.993e-05   -6.808e-04  
 -3.9000e-02   -9.220e-06    2.357e-04    4.924e-05   -6.848e-04  
 -3.8000e-02   -8.984e-06    2.357e-04    4.855e-05   -6.880e-04  
 -3.7000e-02   -8.748e-06    2.358e-04    4.786e-05   -6.904e-04  
 -3.6000e-02   -8.512e-06    2.358e-04    4.717e-05   -6.919e-04  
 -3.5000e-02   -8.276e-06    2.359e-04    4.647e-05   -6.927e-04  
 -3.4000e-02   -8.040e-06    2.359e-04    4.578e-05   -6.928e-04  
 -3.3000e-02   -7.804e-06    2.360e-04    4.509e-05   -6.927e-04  
 -3.2000e-02   -7.568e-06    2.360e-04    4.439e-05   -6.928e-04  
 -3.1000e-02   -7.332e-06    2.360e-04    4.370e-05   -6.938e-04  
 -3.0000e-02   -7.096e-06    2.361e-04    4.300e-05   -6.967e-04  
 -2.9000e-02   -6.860e-06    2.361e-04    4.228e-05   -7.026e-04  
 -2.8000e-02   -6.624e-06    2.362e-04    4.155e-05   -7.131e-04  
 -2.7000e-02   -6.388e-06    2.362e-04    4.080e-05   -7.299e-04  
 -2.6000e-02   -6.151e-06    2.362e-04    4.001e-05   -7.550e-04  
 -2.5000e-02   -5.915e-06    2.363e-04    3.917e-05   -7.904e-04  
 -2.4000e-02   -5.679e-06    2.363e-04    3.827e-05   -8.385e-04  
 -2.3000e-02   -5.442e-06    2.364e-04    3.729e-05   -9.011e-04  
 -2.2000e-02   -5.206e-06    2.364e-04    3.621e-05   -9.801e-04  
 -2.1000e-02   -4.969e-06    2.364e-04    3.502e-05   -1.077e-03  
 -2.0000e-02   -4.733e-06    2.365e-04    3.370e-05   -1.191e-03  
 -1.9000e-02   -4.496e-06    2.365e-04    3.223e-05   -1.322e-03  
 -1.8000e-02   -4.260e-06    2.365e-04    3.060e-05   -1.469e-03  
 -1.7000e-02   -4.023e-06    2.365e-04    2.880e-05   -1.629e-03  
 -1.6000e-02   -3.787e-06    2.366e-04    2.684e-05   -1.796e-03  
 -1.5000e-02   -3.550e-06    2.366e-04    2.471e-05   -1.964e-03  
 -1.4000e-02   -3.313e-06    2.366e-04    2.244e-05   -2.126e-03  
 -1.3000e-02   -3.077e-06    2.366e-04    2.004e-05   -2.273e-03  
 -1.2000e-02   -2.840e-06    2.366e-04    1.756e-05   -2.397e-03  
 -1.1000e-02   -2.603e-06    2.367e-04    1.502e-05   -2.487e-03  
 -1.0000e-02   -2.367e-06    2.367e-04    1.250e-05   -2.533e-03  
 -9.0000e-03   -2.130e-06    2.367e-04    1.003e-05   -2.529e-03  
 -8.0000e-03   -1.893e-06    2.367e-04    7.684e-06   -2.467e-03  
 -7.0000e-03   -1.657e-06    2.367e-04    5.523e-06   -2.344e-03  
 -6.0000e-03   -1.420e-06    2.367e-04    3.602e-06   -2.161e-03  
 -5.0000e-03   -1.183e-06    2.367e-04    1.970e-06   -1.921e-03  
 -4.0000e-03   -9.467e-07    2.367e-04    6.637e-07   -1.632e-03  
 -3.0000e-03   -7.100e-07    2.367e-04   -2.968e-07   -1.306e-03  
 -2.0000e-03   -4.734e-07    2.367e-04   -9.088e-07   -9.605e-04  
 -1.0000e-03   -2.367e-07    2.367e-04   -1.190e-06   -6.121e-04  
    0.            0.         2.367e-04   -1.177e-06   -2.811e-04  
  1.0000e-03    2.367e-07    2.367e-04   -9.259e-07    1.275e-05  
  2.0000e-03    4.734e-07    2.367e-04   -5.064e-07    2.513e-04  
  3.0000e-03    7.100e-07    2.367e-04    5.421e-17    4.195e-04  
  4.0000e-03    9.467e-07    2.367e-04    5.064e-07    5.064e-04  
  5.0000e-03    1.183e-06    2.367e-04    9.259e-07    5.064e-04  
  6.0000e-03    1.420e-06    2.367e-04    1.177e-06    4.195e-04  
  7.0000e-03    1.657e-06    2.367e-04    1.190e-06    2.513e-04  
  8.0000e-03    1.893e-06    2.367e-04    9.088e-07    1.275e-05  
  9.0000e-03    2.130e-06    2.367e-04    2.968e-07   -2.811e-04  
  1.0000e-02    2.367e-06    2.367e-04   -6.637e-07   -6.121e-04  
  1.1000e-02    2.603e-06    2.367e-04   -1.970e-06   -9.605e-04  
  1.2000e-02    2.840e-06    2.367e-04   -3.602e-06   -1.306e-03  
  1.3000e-02    3.077e-06    2.367e-04   -5.523e-06   -1.632e-03  
  1.4000e-02    3.313e-06    2.367e-04   -7.684e-06   -1.921e-03  
  1.5000e-02    3.550e-06    2.366e-04   -1.003e-05   -2.161e-03  
  1.6000e-02    3.787e-06    2.366e-04   -1.250e-05   -2.344e-03  
  1.7000e-02    4.023e-06    2.366e-04   -1.502e-05   -2.467e-03  
  1.8000e-02    4.260e-06    2.366e-04   -1.756e-05   -2.529e-03  
  1.9000e-02    4.496e-06    2.366e-04   -2.004e-05   -2.533e-03  
  2.0000e-02    4.733e-06    2.365e-04   -2.244e-05   -2.487e-03  
  2.1000e-02    4.969e-06    2.365e-04   -2.471e-05   -2.397e-03  
  2.2000e-02    5.206e-06    2.365e-04   -2.684e-05   -2.273e-03  
  2.3000e-02    5.442e-06    2.365e-04   -2.880e-05   -2.126e-03  
  2.4000e-02    5.679e-06    2.364e-04   -3.060e-05   -1.964e-03  
  2.5000e-02    5.915e-06    2.364e-04   -3.223e-05   -1.796e-03  
  2.6000e-02    6.151e-06    2.364e-04   -3.370e-05   -1.629e-03  
  2.7000e-02    6.388e-06    2.363e-04   -3.502e-05   -1.469e-03  
  2.8000e-02    6.624e-06    2.363e-04   -3.621e-05   -1.322e-03  
  2.9000e-02    6.860e-06    2.362e-04   -3.729e-05   -1.191e-03  
  3.0000e-02    7.096e-06    2.362e-04   -3.827e-05   -1.077e-03  
  3.1000e-02    7.332e-06    2.362e-04   -3.917e-05   -9.801e-04  
  3.2000e-02    7.568e-06    2.361e-04   -4.001e-05   -9.011e-04  
  3.3000e-02    7.804e-06    2.361e-04   -4.080e-05   -8.385e-04  
  3.4000e-02    8.040e-06    2.360e-04   -4.155e-05   -7.904e-04  
  3.5000e-02    8.276e-06    2.360e-04   -4.228e-05   -7.550e-04  
  3.6000e-02    8.512e-06    2.360e-04   -4.300e-05   -7.299e-04  
  3.7000e-02    8.748e-06    2.359e-04   -4.370e-05   -7.131e-04  
  3.8000e-02    8.984e-06    2.359e-04   -4.439e-05   -7.026e-04  
  3.9000e-02    9.220e-06    2.358e-04   -4.509e-05   -6.967e-04  
  4.0000e-02    9.456e-06    2.358e-04   -4.578e-05   -6.938e-04  
  4.1000e-02    9.691e-06    2.357e-04   -4.647e-05   -6.928e-04  
  4.2000e-02    9.927e-06    2.357e-04   -4.717e-05   -6.927e-04  
  4.3000e-02    1.016e-05    2.356e-04   -4.786e-05   -6.928e-04  
  4.4000e-02    1.040e-05    2.356e-04   -4.855e-05   -6.927e-04  
  4.5000e-02    1.063e-05    2.355e-04   -4.924e-05   -6.919e-04  
  4.6000e-02    1.087e-05    2.355e-04   -4.993e-05   -6.904e-04  
  4.7000e-02    1.110e-05    2.354e-04   -5.061e-05   -6.880e-04  
  4.8000e-02    1.134e-05    2.354e-04   -5.130e-05   -6.848e-04  
  4.9000e-02    1.157e-05    2.353e-04   -5.197e-05   -6.808e-04  
  5.0000e-02    1.181e-05    2.353e-04   -5.264e-05   -6.761e-04  
  5.1000e-02    1.205e-05    2.352e-04   -5.331e-05   -6.708e-04  
  5.2000e-02    1.228e-05    2.352e-04   -5.397e-05   -6.651e-04  
  5.3000e-02    1.252e-05    2.351e-04   -5.462e-05   -6.590e-04  
  5.4000e-02    1.275e-05    2.350e-04   -5.527e-05   -6.527e-04  
  5.5000e-02    1.299e-05    2.350e-04   -5.591e-05   -6.463e-04  
  5.6000e-02    1.322e-05    2.349e-04   -5.654e-05   -6.398e-04  
  5.7000e-02    1.345e-05    2.349e-04   -5.717e-05   -6.333e-04  
  5.8000e-02    1.369e-05    2.348e-04   -5.779e-05   -6.269e-04  
  5.9000e-02    1.392e-05    2.348e-04   -5.840e-05   -6.206e-04  
  6.0000e-02    1.416e-05    2.347e-04   -5.901e-05   -6.145e-04  
  6.1000e-02    1.439e-05    2.346e-04   -5.961e-05   -6.086e-04  
  6.2000e-02    1.463e-05    2.346e-04   -6.021e-05   -6.029e-04  
  6.3000e-02    1.486e-05    2.345e-04   -6.080e-05   -5.974e-04  
  6.4000e-02    1.510e-05    2.345e-04   -6.139e-05   -5.921e-04  
  6.5000e-02    1.533e-05    2.344e-04   -6.197e-05   -5.871e-04  
  6.6000e-02    1.557e-05    2.343e-04   -6.255e-05   -5.823e-04  
  6.7000e-02    1.580e-05    2.343e-04   -6.312e-05   -5.777e-04  
  6.8000e-02    1.603e-05    2.342e-04   -6.369e-05   -5.734e-04  
  6.9000e-02    1.627e-05    2.341e-04   -6.426e-05   -5.693e-04  
  7.0000e-02    1.650e-05    2.341e-04   -6.482e-05   -5.654e-04  
  7.1000e-02    1.674e-05    2.340e-04   -6.538e-05   -5.618e-04  
  7.2000e-02    1.697e-05    2.339e-04   -6.593e-05   -5.583e-04  
  7.3000e-02    1.720e-05    2.339e-04   -6.648e-05   -5.550e-04  
  7.4000e-02    1.744e-05    2.338e-04   -6.703e-05   -5.519e-04  
  7.5000e-02    1.767e-05    2.337e-04   -6.758e-05   -5.490e-04  
  7.6000e-02    1.790e-05    2.337e-04   -6.812e-05   -5.462e-04  
  7.7000e-02    1.814e-05    2.336e-04   -6.866e-05   -5.436e-04  
  7.8000e-02    1.837e-05    2.335e-04   -6.920e-05   -5.412e-04  
  7.9000e-02    1.861e-05    2.335e-04   -6.974e-05   -5.389e-04  
  8.0000e-02    1.884e-05    2.334e-04   -7.027e-05   -5.367e-04  
  8.1000e-02    1.907e-05    2.333e-04   -7.081e-05   -5.347e-04  
  8.2000e-02    1.930e-05    2.332e-04   -7.134e-05   -5.328e-04  
  8.3000e-02    1.954e-05    2.332e-04   -7.187e-05   -5.310e-04  
  8.4000e-02    1.977e-05    2.331e-04   -7.239e-05   -5.293e-04  
  8.5000e-02    2.000e-05    2.330e-04   -7.292e-05   -5.277e-04  
  8.6000e-02    2.024e-05    2.330e-04   -7.345e-05   -5.262e-04  
  8.7000e-02    2.047e-05    2.329e-04   -7.397e-05   -5.249e-04  
  8.8000e-02    2.070e-05    2.328e-04   -7.449e-05   -5.236e-04  
  8.9000e-02    2.093e-05    2.327e-04   -7.501e-05   -5.223e-04  
  9.0000e-02    2.117e-05    2.327e-04   -7.553e-05   -5.212e-04  
  9.1000e-02    2.140e-05    2.326e-04   -7.605e-05   -5.201e-04  
  9.2000e-02    2.163e-05    2.325e-04   -7.657e-05   -5.191e-04  
  9.3000e-02    2.186e-05    2.324e-04   -7.709e-05   -5.182e-04  
  9.4000e-02    2.210e-05    2.323e-04   -7.760e-05   -5.173e-04  
  9.5000e-02    2.233e-05    2.323e-04   -7.812e-05   -5.165e-04  
  9.6000e-02    2.256e-05    2.322e-04   -7.863e-05   -5.157e-04  
  9.7000e-02    2.279e-05    2.321e-04   -7.915e-05   -5.150e-04  
  9.8000e-02    2.303e-05    2.320e-04   -7.966e-05   -5.144e-04  
  9.9000e-02    2.326e-05    2.319e-04   -8.018e-05   -5.138e-04  
    0.10000     2.349e-05    2.319e-04   -8.069e-05   -5.132e-04  
y
x

        volt    param      
                    gx4    
   -0.10000       0.       
 -9.9000e-02      0.       
 -9.8000e-02      0.       
 -9.7000e-02      0.       
 -9.6000e-02   -2.348e+07  
 -9.5000e-02    7.069e+07  
 -9.4000e-02   -7.093e+07  
 -9.3000e-02    2.372e+07  
 -9.2000e-02   -4.531e-04  
 -9.1000e-02   -4.892e-04  
 -9.0000e-02   -5.271e-04  
 -8.9000e-02   -5.681e-04  
 -8.8000e-02   -6.110e-04  
 -8.7000e-02   -6.573e-04  
 -8.6000e-02   -7.062e-04  
 -8.5000e-02   -7.579e-04  
 -8.4000e-02   -8.133e-04  
 -8.3000e-02   -8.716e-04  
 -8.2000e-02   -9.339e-04  
 -8.1000e-02   -9.993e-04  
 -8.0000e-02   -1.069e-03  
 -7.9000e-02   -1.143e-03  
 -7.8000e-02   -1.221e-03  
 -7.7000e-02   -1.304e-03  
 -7.6000e-02   -1.392e-03  
 -7.5000e-02   -1.484e-03  
 -7.4000e-02   -1.582e-03  
 -7.3000e-02   -1.686e-03  
 -7.2000e-02   -1.795e-03  
 -7.1000e-02   -1.911e-03  
 -7.0000e-02   -2.033e-03  
 -6.9000e-02   -2.162e-03  
 -6.8000e-02   -2.298e-03  
 -6.7000e-02   -2.442e-03  
 -6.6000e-02   -2.593e-03  
 -6.5000e-02   -2.752e-03  
 -6.4000e-02   -2.920e-03  
 -6.3000e-02   -3.096e-03  
 -6.2000e-02   -3.280e-03  
 -6.1000e-02   -3.473e-03  
 -6.0000e-02   -3.674e-03  
 -5.9000e-02   -3.883e-03  
 -5.8000e-02   -4.101e-03  
 -5.7000e-02   -4.325e-03  
 -5.6000e-02   -4.555e-03  
 -5.5000e-02   -4.789e-03  
 -5.4000e-02   -5.026e-03  
 -5.3000e-02   -5.262e-03  
 -5.2000e-02   -5.495e-03  
 -5.1000e-02   -5.718e-03  
 -5.0000e-02   -5.928e-03  
 -4.9000e-02   -6.118e-03  
 -4.8000e-02   -6.280e-03  
 -4.7000e-02   -6.404e-03  
 -4.6000e-02   -6.481e-03  
 -4.5000e-02   -6.498e-03  
 -4.4000e-02   -6.443e-03  
 -4.3000e-02   -6.303e-03  
 -4.2000e-02   -6.067e-03  
 -4.1000e-02   -5.723e-03  
 -4.0000e-02   -5.264e-03  
 -3.9000e-02   -4.688e-03  
 -3.8000e-02   -4.000e-03  
 -3.7000e-02   -3.221e-03  
 -3.6000e-02   -2.381e-03  
 -3.5000e-02   -1.534e-03  
 -3.4000e-02   -7.582e-04  
 -3.3000e-02   -1.595e-04  
 -3.2000e-02    1.219e-04  
 -3.1000e-02   -8.865e-05  
 -3.0000e-02   -1.002e-03  
 -2.9000e-02   -2.860e-03  
 -2.8000e-02   -5.930e-03  
 -2.7000e-02   -1.049e-02  
 -2.6000e-02   -1.680e-02  
 -2.5000e-02   -2.508e-02  
 -2.4000e-02   -3.549e-02  
 -2.3000e-02   -4.805e-02  
 -2.2000e-02   -6.264e-02  
 -2.1000e-02   -7.896e-02  
 -2.0000e-02   -9.644e-02  
 -1.9000e-02     -0.1143   
 -1.8000e-02     -0.1316   
 -1.7000e-02     -0.1470   
 -1.6000e-02     -0.1593   
 -1.5000e-02     -0.1668   
 -1.4000e-02     -0.1682   
 -1.3000e-02     -0.1622   
 -1.2000e-02     -0.1475   
 -1.1000e-02     -0.1234   
 -1.0000e-02   -8.970e-02  
 -9.0000e-03   -4.671e-02  
 -8.0000e-03    4.438e-03  
 -7.0000e-03    6.179e-02  
 -6.0000e-03      0.1226   
 -5.0000e-03      0.1834   
 -4.0000e-03      0.2402   
 -3.0000e-03      0.2889   
 -2.0000e-03      0.3253   
 -1.0000e-03      0.3460   
    0.            0.3484   
  1.0000e-03      0.3310   
  2.0000e-03      0.2938   
  3.0000e-03      0.2386   
  4.0000e-03      0.1682   
  5.0000e-03    8.692e-02  
  6.0000e-03   -3.253e-10  
  7.0000e-03   -8.692e-02  
  8.0000e-03     -0.1682   
  9.0000e-03     -0.2386   
  1.0000e-02     -0.2938   
  1.1000e-02     -0.3310   
  1.2000e-02     -0.3484   
  1.3000e-02     -0.3460   
  1.4000e-02     -0.3253   
  1.5000e-02     -0.2889   
  1.6000e-02     -0.2402   
  1.7000e-02     -0.1834   
  1.8000e-02     -0.1226   
  1.9000e-02   -6.179e-02  
  2.0000e-02   -4.438e-03  
  2.1000e-02    4.671e-02  
  2.2000e-02    8.970e-02  
  2.3000e-02      0.1234   
  2.4000e-02      0.1475   
  2.5000e-02      0.1622   
  2.6000e-02      0.1682   
  2.7000e-02      0.1668   
  2.8000e-02      0.1593   
  2.9000e-02      0.1470   
  3.0000e-02      0.1316   
  3.1000e-02      0.1143   
  3.2000e-02    9.644e-02  
  3.3000e-02    7.896e-02  
  3.4000e-02    6.264e-02  
  3.5000e-02    4.805e-02  
  3.6000e-02    3.549e-02  
  3.7000e-02    2.508e-02  
  3.8000e-02    1.680e-02  
  3.9000e-02    1.049e-02  
  4.0000e-02    5.930e-03  
  4.1000e-02    2.860e-03  
  4.2000e-02    1.002e-03  
  4.3000e-02    8.864e-05  
  4.4000e-02   -1.219e-04  
  4.5000e-02    1.595e-04  
  4.6000e-02    7.583e-04  
  4.7000e-02    1.534e-03  
  4.8000e-02    2.381e-03  
  4.9000e-02    3.221e-03  
  5.0000e-02    4.001e-03  
  5.1000e-02    4.688e-03  
  5.2000e-02    5.264e-03  
  5.3000e-02    5.723e-03  
  5.4000e-02    6.067e-03  
  5.5000e-02    6.304e-03  
  5.6000e-02    6.443e-03  
  5.7000e-02    6.498e-03  
  5.8000e-02    6.481e-03  
  5.9000e-02    6.404e-03  
  6.0000e-02    6.280e-03  
  6.1000e-02    6.118e-03  
  6.2000e-02    5.928e-03  
  6.3000e-02    5.718e-03  
  6.4000e-02    5.495e-03  
  6.5000e-02    5.262e-03  
  6.6000e-02    5.026e-03  
  6.7000e-02    4.790e-03  
  6.8000e-02    4.555e-03  
  6.9000e-02    4.325e-03  
  7.0000e-02    4.101e-03  
  7.1000e-02    3.883e-03  
  7.2000e-02    3.674e-03  
  7.3000e-02    3.473e-03  
  7.4000e-02    3.280e-03  
  7.5000e-02    3.096e-03  
  7.6000e-02    2.920e-03  
  7.7000e-02    2.752e-03  
  7.8000e-02    2.593e-03  
  7.9000e-02    2.442e-03  
  8.0000e-02    2.298e-03  
  8.1000e-02    2.162e-03  
  8.2000e-02    2.033e-03  
  8.3000e-02    1.911e-03  
  8.4000e-02    1.795e-03  
  8.5000e-02    1.686e-03  
  8.6000e-02    1.582e-03  
  8.7000e-02    1.484e-03  
  8.8000e-02    1.392e-03  
  8.9000e-02    1.304e-03  
  9.0000e-02    1.221e-03  
  9.1000e-02    1.143e-03  
  9.2000e-02    1.069e-03  
  9.3000e-02    9.993e-04  
  9.4000e-02    9.339e-04  
  9.5000e-02    8.716e-04  
  9.6000e-02    8.133e-04  
  9.7000e-02    7.578e-04  
  9.8000e-02    7.062e-04  
  9.9000e-02    6.572e-04  
    0.10000     6.111e-04  
y
-----------------------------------------------
 ******  
 *sample netlist for bsim6.0

  ******  dc transfer curves tnom=  25.000 temp=  25.000 *****

   *** source        0:vgate =   -0.7000        ***

x

        volt    param        param        param        param      
                    ids          gx           gx2          gx3    
   -0.10000    -1.780e-05   -2.349e-04   -2.319e-03    8.069e-04  
 -9.9000e-02   -1.762e-05   -4.129e-02     -0.4668      -2.2379   
 -9.8000e-02   -1.745e-05    1.738e-04    -41.0509    -464.4332   
 -9.7000e-02   -1.728e-05    1.739e-04     41.4596    -4.058e+04  
 -9.6000e-02   -1.710e-05    1.740e-04    1.073e-04    8.251e+04  
 -9.5000e-02   -1.693e-05    1.741e-04    1.067e-04   -4.145e+04  
 -9.4000e-02   -1.675e-05    1.742e-04    1.061e-04   -6.027e-04  
 -9.3000e-02   -1.658e-05    1.743e-04    1.054e-04   -6.043e-04  
 -9.2000e-02   -1.640e-05    1.744e-04    1.048e-04   -6.058e-04  
 -9.1000e-02   -1.623e-05    1.746e-04    1.042e-04   -6.074e-04  
 -9.0000e-02   -1.605e-05    1.747e-04    1.036e-04   -6.090e-04  
 -8.9000e-02   -1.588e-05    1.748e-04    1.030e-04   -6.106e-04  
 -8.8000e-02   -1.570e-05    1.749e-04    1.024e-04   -6.123e-04  
 -8.7000e-02   -1.553e-05    1.750e-04    1.018e-04   -6.140e-04  
 -8.6000e-02   -1.535e-05    1.751e-04    1.012e-04   -6.158e-04  
 -8.5000e-02   -1.518e-05    1.752e-04    1.005e-04   -6.176e-04  
 -8.4000e-02   -1.500e-05    1.753e-04    9.992e-05   -6.195e-04  
 -8.3000e-02   -1.483e-05    1.754e-04    9.930e-05   -6.215e-04  
 -8.2000e-02   -1.465e-05    1.755e-04    9.867e-05   -6.235e-04  
 -8.1000e-02   -1.448e-05    1.756e-04    9.804e-05   -6.256e-04  
 -8.0000e-02   -1.430e-05    1.757e-04    9.741e-05   -6.278e-04  
 -7.9000e-02   -1.413e-05    1.757e-04    9.678e-05   -6.301e-04  
 -7.8000e-02   -1.395e-05    1.758e-04    9.615e-05   -6.325e-04  
 -7.7000e-02   -1.377e-05    1.759e-04    9.551e-05   -6.350e-04  
 -7.6000e-02   -1.360e-05    1.760e-04    9.487e-05   -6.377e-04  
 -7.5000e-02   -1.342e-05    1.761e-04    9.423e-05   -6.404e-04  
 -7.4000e-02   -1.324e-05    1.762e-04    9.358e-05   -6.433e-04  
 -7.3000e-02   -1.307e-05    1.763e-04    9.293e-05   -6.463e-04  
 -7.2000e-02   -1.289e-05    1.764e-04    9.228e-05   -6.495e-04  
 -7.1000e-02   -1.271e-05    1.765e-04    9.162e-05   -6.529e-04  
 -7.0000e-02   -1.254e-05    1.766e-04    9.096e-05   -6.564e-04  
 -6.9000e-02   -1.236e-05    1.767e-04    9.030e-05   -6.601e-04  
 -6.8000e-02   -1.218e-05    1.768e-04    8.963e-05   -6.640e-04  
 -6.7000e-02   -1.201e-05    1.768e-04    8.896e-05   -6.681e-04  
 -6.6000e-02   -1.183e-05    1.769e-04    8.828e-05   -6.725e-04  
 -6.5000e-02   -1.165e-05    1.770e-04    8.760e-05   -6.770e-04  
 -6.4000e-02   -1.148e-05    1.771e-04    8.691e-05   -6.819e-04  
 -6.3000e-02   -1.130e-05    1.772e-04    8.622e-05   -6.869e-04  
 -6.2000e-02   -1.112e-05    1.773e-04    8.552e-05   -6.923e-04  
 -6.1000e-02   -1.094e-05    1.774e-04    8.482e-05   -6.979e-04  
 -6.0000e-02   -1.077e-05    1.774e-04    8.411e-05   -7.038e-04  
 -5.9000e-02   -1.059e-05    1.775e-04    8.339e-05   -7.101e-04  
 -5.8000e-02   -1.041e-05    1.776e-04    8.267e-05   -7.167e-04  
 -5.7000e-02   -1.023e-05    1.777e-04    8.193e-05   -7.236e-04  
 -5.6000e-02   -1.006e-05    1.778e-04    8.120e-05   -7.308e-04  
 -5.5000e-02   -9.878e-06    1.779e-04    8.045e-05   -7.384e-04  
 -5.4000e-02   -9.700e-06    1.779e-04    7.970e-05   -7.463e-04  
 -5.3000e-02   -9.522e-06    1.780e-04    7.893e-05   -7.545e-04  
 -5.2000e-02   -9.344e-06    1.781e-04    7.816e-05   -7.631e-04  
 -5.1000e-02   -9.165e-06    1.782e-04    7.738e-05   -7.719e-04  
 -5.0000e-02   -8.987e-06    1.782e-04    7.659e-05   -7.810e-04  
 -4.9000e-02   -8.809e-06    1.783e-04    7.579e-05   -7.903e-04  
 -4.8000e-02   -8.630e-06    1.784e-04    7.498e-05   -7.998e-04  
 -4.7000e-02   -8.452e-06    1.785e-04    7.416e-05   -8.094e-04  
 -4.6000e-02   -8.273e-06    1.785e-04    7.333e-05   -8.190e-04  
 -4.5000e-02   -8.094e-06    1.786e-04    7.249e-05   -8.284e-04  
 -4.4000e-02   -7.916e-06    1.787e-04    7.165e-05   -8.376e-04  
 -4.3000e-02   -7.737e-06    1.787e-04    7.079e-05   -8.464e-04  
 -4.2000e-02   -7.558e-06    1.788e-04    6.993e-05   -8.546e-04  
 -4.1000e-02   -7.379e-06    1.789e-04    6.906e-05   -8.621e-04  
 -4.0000e-02   -7.200e-06    1.790e-04    6.819e-05   -8.686e-04  
 -3.9000e-02   -7.021e-06    1.790e-04    6.731e-05   -8.740e-04  
 -3.8000e-02   -6.842e-06    1.791e-04    6.643e-05   -8.781e-04  
 -3.7000e-02   -6.663e-06    1.791e-04    6.555e-05   -8.809e-04  
 -3.6000e-02   -6.483e-06    1.792e-04    6.467e-05   -8.824e-04  
 -3.5000e-02   -6.304e-06    1.793e-04    6.378e-05   -8.825e-04  
 -3.4000e-02   -6.125e-06    1.793e-04    6.290e-05   -8.817e-04  
 -3.3000e-02   -5.945e-06    1.794e-04    6.202e-05   -8.805e-04  
 -3.2000e-02   -5.766e-06    1.795e-04    6.114e-05   -8.795e-04  
 -3.1000e-02   -5.586e-06    1.795e-04    6.026e-05   -8.798e-04  
 -3.0000e-02   -5.406e-06    1.796e-04    5.937e-05   -8.830e-04  
 -2.9000e-02   -5.227e-06    1.796e-04    5.846e-05   -8.909e-04  
 -2.8000e-02   -5.047e-06    1.797e-04    5.753e-05   -9.059e-04  
 -2.7000e-02   -4.867e-06    1.797e-04    5.656e-05   -9.306e-04  
 -2.6000e-02   -4.687e-06    1.798e-04    5.554e-05   -9.682e-04  
 -2.5000e-02   -4.507e-06    1.799e-04    5.445e-05   -1.022e-03  
 -2.4000e-02   -4.327e-06    1.799e-04    5.326e-05   -1.095e-03  
 -2.3000e-02   -4.147e-06    1.800e-04    5.194e-05   -1.191e-03  
 -2.2000e-02   -3.967e-06    1.800e-04    5.048e-05   -1.312e-03  
 -2.1000e-02   -3.787e-06    1.801e-04    4.885e-05   -1.460e-03  
 -2.0000e-02   -3.607e-06    1.801e-04    4.701e-05   -1.637e-03  
 -1.9000e-02   -3.427e-06    1.801e-04    4.494e-05   -1.840e-03  
 -1.8000e-02   -3.247e-06    1.802e-04    4.263e-05   -2.067e-03  
 -1.7000e-02   -3.066e-06    1.802e-04    4.006e-05   -2.312e-03  
 -1.6000e-02   -2.886e-06    1.803e-04    3.723e-05   -2.570e-03  
 -1.5000e-02   -2.706e-06    1.803e-04    3.415e-05   -2.830e-03  
 -1.4000e-02   -2.525e-06    1.803e-04    3.084e-05   -3.081e-03  
 -1.3000e-02   -2.345e-06    1.803e-04    2.734e-05   -3.308e-03  
 -1.2000e-02   -2.165e-06    1.804e-04    2.370e-05   -3.499e-03  
 -1.1000e-02   -1.984e-06    1.804e-04    2.000e-05   -3.637e-03  
 -1.0000e-02   -1.804e-06    1.804e-04    1.630e-05   -3.708e-03  
 -9.0000e-03   -1.624e-06    1.804e-04    1.270e-05   -3.699e-03  
 -8.0000e-03   -1.443e-06    1.804e-04    9.286e-06   -3.602e-03  
 -7.0000e-03   -1.263e-06    1.804e-04    6.163e-06   -3.410e-03  
 -6.0000e-03   -1.082e-06    1.804e-04    3.415e-06   -3.123e-03  
 -5.0000e-03   -9.020e-07    1.804e-04    1.117e-06   -2.748e-03  
 -4.0000e-03   -7.216e-07    1.804e-04   -6.742e-07   -2.298e-03  
 -3.0000e-03   -5.412e-07    1.804e-04   -1.926e-06   -1.791e-03  
 -2.0000e-03   -3.608e-07    1.804e-04   -2.635e-06   -1.252e-03  
 -1.0000e-03   -1.804e-07    1.804e-04   -2.829e-06   -7.091e-04  
    0.            0.         1.804e-04   -2.565e-06   -1.937e-04  
  1.0000e-03    1.804e-07    1.804e-04   -1.930e-06    2.639e-04  
  2.0000e-03    3.608e-07    1.804e-04   -1.032e-06    6.353e-04  
  3.0000e-03    5.412e-07    1.804e-04   -5.421e-17    8.971e-04  
  4.0000e-03    7.216e-07    1.804e-04    1.032e-06    1.032e-03  
  5.0000e-03    9.020e-07    1.804e-04    1.930e-06    1.032e-03  
  6.0000e-03    1.082e-06    1.804e-04    2.565e-06    8.971e-04  
  7.0000e-03    1.263e-06    1.804e-04    2.829e-06    6.353e-04  
  8.0000e-03    1.443e-06    1.804e-04    2.635e-06    2.639e-04  
  9.0000e-03    1.624e-06    1.804e-04    1.926e-06   -1.937e-04  
  1.0000e-02    1.804e-06    1.804e-04    6.742e-07   -7.091e-04  
  1.1000e-02    1.984e-06    1.804e-04   -1.117e-06   -1.252e-03  
  1.2000e-02    2.165e-06    1.804e-04   -3.415e-06   -1.791e-03  
  1.3000e-02    2.345e-06    1.804e-04   -6.163e-06   -2.298e-03  
  1.4000e-02    2.525e-06    1.804e-04   -9.286e-06   -2.748e-03  
  1.5000e-02    2.706e-06    1.804e-04   -1.270e-05   -3.123e-03  
  1.6000e-02    2.886e-06    1.803e-04   -1.630e-05   -3.410e-03  
  1.7000e-02    3.066e-06    1.803e-04   -2.000e-05   -3.602e-03  
  1.8000e-02    3.247e-06    1.803e-04   -2.370e-05   -3.699e-03  
  1.9000e-02    3.427e-06    1.803e-04   -2.734e-05   -3.708e-03  
  2.0000e-02    3.607e-06    1.802e-04   -3.084e-05   -3.637e-03  
  2.1000e-02    3.787e-06    1.802e-04   -3.415e-05   -3.499e-03  
  2.2000e-02    3.967e-06    1.801e-04   -3.723e-05   -3.308e-03  
  2.3000e-02    4.147e-06    1.801e-04   -4.006e-05   -3.081e-03  
  2.4000e-02    4.327e-06    1.801e-04   -4.263e-05   -2.830e-03  
  2.5000e-02    4.507e-06    1.800e-04   -4.494e-05   -2.570e-03  
  2.6000e-02    4.687e-06    1.800e-04   -4.701e-05   -2.312e-03  
  2.7000e-02    4.867e-06    1.799e-04   -4.885e-05   -2.067e-03  
  2.8000e-02    5.047e-06    1.799e-04   -5.048e-05   -1.840e-03  
  2.9000e-02    5.227e-06    1.798e-04   -5.194e-05   -1.637e-03  
  3.0000e-02    5.406e-06    1.797e-04   -5.326e-05   -1.460e-03  
  3.1000e-02    5.586e-06    1.797e-04   -5.445e-05   -1.312e-03  
  3.2000e-02    5.766e-06    1.796e-04   -5.554e-05   -1.191e-03  
  3.3000e-02    5.945e-06    1.796e-04   -5.656e-05   -1.095e-03  
  3.4000e-02    6.125e-06    1.795e-04   -5.753e-05   -1.022e-03  
  3.5000e-02    6.304e-06    1.795e-04   -5.846e-05   -9.682e-04  
  3.6000e-02    6.483e-06    1.794e-04   -5.937e-05   -9.306e-04  
  3.7000e-02    6.663e-06    1.793e-04   -6.026e-05   -9.059e-04  
  3.8000e-02    6.842e-06    1.793e-04   -6.114e-05   -8.909e-04  
  3.9000e-02    7.021e-06    1.792e-04   -6.202e-05   -8.830e-04  
  4.0000e-02    7.200e-06    1.791e-04   -6.290e-05   -8.798e-04  
  4.1000e-02    7.379e-06    1.791e-04   -6.378e-05   -8.795e-04  
  4.2000e-02    7.558e-06    1.790e-04   -6.467e-05   -8.805e-04  
  4.3000e-02    7.737e-06    1.790e-04   -6.555e-05   -8.817e-04  
  4.4000e-02    7.916e-06    1.789e-04   -6.643e-05   -8.825e-04  
  4.5000e-02    8.094e-06    1.788e-04   -6.731e-05   -8.824e-04  
  4.6000e-02    8.273e-06    1.787e-04   -6.819e-05   -8.809e-04  
  4.7000e-02    8.452e-06    1.787e-04   -6.906e-05   -8.781e-04  
  4.8000e-02    8.630e-06    1.786e-04   -6.993e-05   -8.740e-04  
  4.9000e-02    8.809e-06    1.785e-04   -7.079e-05   -8.686e-04  
  5.0000e-02    8.987e-06    1.785e-04   -7.165e-05   -8.621e-04  
  5.1000e-02    9.165e-06    1.784e-04   -7.249e-05   -8.546e-04  
  5.2000e-02    9.344e-06    1.783e-04   -7.333e-05   -8.464e-04  
  5.3000e-02    9.522e-06    1.782e-04   -7.416e-05   -8.376e-04  
  5.4000e-02    9.700e-06    1.782e-04   -7.498e-05   -8.284e-04  
  5.5000e-02    9.878e-06    1.781e-04   -7.579e-05   -8.190e-04  
  5.6000e-02    1.006e-05    1.780e-04   -7.659e-05   -8.094e-04  
  5.7000e-02    1.023e-05    1.779e-04   -7.738e-05   -7.998e-04  
  5.8000e-02    1.041e-05    1.779e-04   -7.816e-05   -7.903e-04  
  5.9000e-02    1.059e-05    1.778e-04   -7.893e-05   -7.810e-04  
  6.0000e-02    1.077e-05    1.777e-04   -7.970e-05   -7.719e-04  
  6.1000e-02    1.094e-05    1.776e-04   -8.045e-05   -7.631e-04  
  6.2000e-02    1.112e-05    1.775e-04   -8.120e-05   -7.545e-04  
  6.3000e-02    1.130e-05    1.774e-04   -8.193e-05   -7.463e-04  
  6.4000e-02    1.148e-05    1.774e-04   -8.267e-05   -7.384e-04  
  6.5000e-02    1.165e-05    1.773e-04   -8.339e-05   -7.308e-04  
  6.6000e-02    1.183e-05    1.772e-04   -8.411e-05   -7.236e-04  
  6.7000e-02    1.201e-05    1.771e-04   -8.482e-05   -7.167e-04  
  6.8000e-02    1.218e-05    1.770e-04   -8.552e-05   -7.101e-04  
  6.9000e-02    1.236e-05    1.769e-04   -8.622e-05   -7.038e-04  
  7.0000e-02    1.254e-05    1.768e-04   -8.691e-05   -6.979e-04  
  7.1000e-02    1.271e-05    1.768e-04   -8.760e-05   -6.923e-04  
  7.2000e-02    1.289e-05    1.767e-04   -8.828e-05   -6.869e-04  
  7.3000e-02    1.307e-05    1.766e-04   -8.896e-05   -6.819e-04  
  7.4000e-02    1.324e-05    1.765e-04   -8.963e-05   -6.770e-04  
  7.5000e-02    1.342e-05    1.764e-04   -9.030e-05   -6.725e-04  
  7.6000e-02    1.360e-05    1.763e-04   -9.096e-05   -6.681e-04  
  7.7000e-02    1.377e-05    1.762e-04   -9.162e-05   -6.640e-04  
  7.8000e-02    1.395e-05    1.761e-04   -9.228e-05   -6.601e-04  
  7.9000e-02    1.413e-05    1.760e-04   -9.293e-05   -6.564e-04  
  8.0000e-02    1.430e-05    1.759e-04   -9.358e-05   -6.529e-04  
  8.1000e-02    1.448e-05    1.758e-04   -9.423e-05   -6.495e-04  
  8.2000e-02    1.465e-05    1.757e-04   -9.487e-05   -6.463e-04  
  8.3000e-02    1.483e-05    1.757e-04   -9.551e-05   -6.433e-04  
  8.4000e-02    1.500e-05    1.756e-04   -9.615e-05   -6.404e-04  
  8.5000e-02    1.518e-05    1.755e-04   -9.678e-05   -6.377e-04  
  8.6000e-02    1.535e-05    1.754e-04   -9.741e-05   -6.350e-04  
  8.7000e-02    1.553e-05    1.753e-04   -9.804e-05   -6.325e-04  
  8.8000e-02    1.570e-05    1.752e-04   -9.867e-05   -6.301e-04  
  8.9000e-02    1.588e-05    1.751e-04   -9.930e-05   -6.278e-04  
  9.0000e-02    1.605e-05    1.750e-04   -9.992e-05   -6.256e-04  
  9.1000e-02    1.623e-05    1.749e-04   -1.005e-04   -6.235e-04  
  9.2000e-02    1.640e-05    1.748e-04   -1.012e-04   -6.215e-04  
  9.3000e-02    1.658e-05    1.747e-04   -1.018e-04   -6.195e-04  
  9.4000e-02    1.675e-05    1.746e-04   -1.024e-04   -6.176e-04  
  9.5000e-02    1.693e-05    1.744e-04   -1.030e-04   -6.158e-04  
  9.6000e-02    1.710e-05    1.743e-04   -1.036e-04   -6.140e-04  
  9.7000e-02    1.728e-05    1.742e-04   -1.042e-04   -6.123e-04  
  9.8000e-02    1.745e-05    1.741e-04   -1.048e-04   -6.106e-04  
  9.9000e-02    1.762e-05    1.740e-04   -1.054e-04   -6.090e-04  
    0.10000     1.780e-05    1.739e-04   -1.061e-04   -6.074e-04  
y
x

        volt    param      
                    gx4    
   -0.10000     5.132e-03  
 -9.9000e-02      1.3201   
 -9.8000e-02   -2.238e+03  
 -9.7000e-02   -4.622e+05  
 -9.6000e-02   -4.012e+07  
 -9.5000e-02    1.230e+08  
 -9.4000e-02   -1.239e+08  
 -9.3000e-02    4.145e+07  
 -9.2000e-02   -1.512e-03  
 -9.1000e-02   -1.536e-03  
 -9.0000e-02   -1.566e-03  
 -8.9000e-02   -1.598e-03  
 -8.8000e-02   -1.636e-03  
 -8.7000e-02   -1.678e-03  
 -8.6000e-02   -1.725e-03  
 -8.5000e-02   -1.776e-03  
 -8.4000e-02   -1.833e-03  
 -8.3000e-02   -1.896e-03  
 -8.2000e-02   -1.964e-03  
 -8.1000e-02   -2.038e-03  
 -8.0000e-02   -2.119e-03  
 -7.9000e-02   -2.206e-03  
 -7.8000e-02   -2.300e-03  
 -7.7000e-02   -2.401e-03  
 -7.6000e-02   -2.511e-03  
 -7.5000e-02   -2.628e-03  
 -7.4000e-02   -2.753e-03  
 -7.3000e-02   -2.888e-03  
 -7.2000e-02   -3.032e-03  
 -7.1000e-02   -3.185e-03  
 -7.0000e-02   -3.349e-03  
 -6.9000e-02   -3.523e-03  
 -6.8000e-02   -3.709e-03  
 -6.7000e-02   -3.906e-03  
 -6.6000e-02   -4.115e-03  
 -6.5000e-02   -4.336e-03  
 -6.4000e-02   -4.570e-03  
 -6.3000e-02   -4.817e-03  
 -6.2000e-02   -5.077e-03  
 -6.1000e-02   -5.350e-03  
 -6.0000e-02   -5.636e-03  
 -5.9000e-02   -5.935e-03  
 -5.8000e-02   -6.245e-03  
 -5.7000e-02   -6.566e-03  
 -5.6000e-02   -6.895e-03  
 -5.5000e-02   -7.231e-03  
 -5.4000e-02   -7.569e-03  
 -5.3000e-02   -7.907e-03  
 -5.2000e-02   -8.237e-03  
 -5.1000e-02   -8.555e-03  
 -5.0000e-02   -8.850e-03  
 -4.9000e-02   -9.113e-03  
 -4.8000e-02   -9.331e-03  
 -4.7000e-02   -9.490e-03  
 -4.6000e-02   -9.574e-03  
 -4.5000e-02   -9.565e-03  
 -4.4000e-02   -9.444e-03  
 -4.3000e-02   -9.190e-03  
 -4.2000e-02   -8.783e-03  
 -4.1000e-02   -8.209e-03  
 -4.0000e-02   -7.454e-03  
 -3.9000e-02   -6.517e-03  
 -3.8000e-02   -5.406e-03  
 -3.7000e-02   -4.149e-03  
 -3.6000e-02   -2.798e-03  
 -3.5000e-02   -1.435e-03  
 -3.4000e-02   -1.815e-04  
 -3.3000e-02    7.977e-04  
 -3.2000e-02    1.284e-03  
 -3.1000e-02    1.007e-03  
 -3.0000e-02   -3.628e-04  
 -2.9000e-02   -3.202e-03  
 -2.8000e-02   -7.925e-03  
 -2.7000e-02   -1.496e-02  
 -2.6000e-02   -2.472e-02  
 -2.5000e-02   -3.756e-02  
 -2.4000e-02   -5.369e-02  
 -2.3000e-02   -7.319e-02  
 -2.2000e-02   -9.585e-02  
 -2.1000e-02     -0.1212   
 -2.0000e-02     -0.1483   
 -1.9000e-02     -0.1761   
 -1.8000e-02     -0.2030   
 -1.7000e-02     -0.2270   
 -1.6000e-02     -0.2460   
 -1.5000e-02     -0.2577   
 -1.4000e-02     -0.2599   
 -1.3000e-02     -0.2505   
 -1.2000e-02     -0.2277   
 -1.1000e-02     -0.1903   
 -1.0000e-02     -0.1379   
 -9.0000e-03   -7.110e-02  
 -8.0000e-03    8.396e-03  
 -7.0000e-03    9.754e-02  
 -6.0000e-03      0.1921   
 -5.0000e-03      0.2865   
 -4.0000e-03      0.3749   
 -3.0000e-03      0.4504   
 -2.0000e-03      0.5070   
 -1.0000e-03      0.5391   
    0.            0.5426   
  1.0000e-03      0.5154   
  2.0000e-03      0.4576   
  3.0000e-03      0.3714   
  4.0000e-03      0.2618   
  5.0000e-03      0.1353   
  6.0000e-03    1.084e-10  
  7.0000e-03     -0.1353   
  8.0000e-03     -0.2618   
  9.0000e-03     -0.3714   
  1.0000e-02     -0.4576   
  1.1000e-02     -0.5154   
  1.2000e-02     -0.5426   
  1.3000e-02     -0.5391   
  1.4000e-02     -0.5070   
  1.5000e-02     -0.4504   
  1.6000e-02     -0.3749   
  1.7000e-02     -0.2865   
  1.8000e-02     -0.1921   
  1.9000e-02   -9.754e-02  
  2.0000e-02   -8.396e-03  
  2.1000e-02    7.110e-02  
  2.2000e-02      0.1379   
  2.3000e-02      0.1903   
  2.4000e-02      0.2277   
  2.5000e-02      0.2505   
  2.6000e-02      0.2599   
  2.7000e-02      0.2577   
  2.8000e-02      0.2460   
  2.9000e-02      0.2270   
  3.0000e-02      0.2030   
  3.1000e-02      0.1761   
  3.2000e-02      0.1483   
  3.3000e-02      0.1212   
  3.4000e-02    9.585e-02  
  3.5000e-02    7.319e-02  
  3.6000e-02    5.369e-02  
  3.7000e-02    3.756e-02  
  3.8000e-02    2.472e-02  
  3.9000e-02    1.496e-02  
  4.0000e-02    7.925e-03  
  4.1000e-02    3.202e-03  
  4.2000e-02    3.627e-04  
  4.3000e-02   -1.007e-03  
  4.4000e-02   -1.284e-03  
  4.5000e-02   -7.977e-04  
  4.6000e-02    1.815e-04  
  4.7000e-02    1.435e-03  
  4.8000e-02    2.798e-03  
  4.9000e-02    4.149e-03  
  5.0000e-02    5.406e-03  
  5.1000e-02    6.517e-03  
  5.2000e-02    7.454e-03  
  5.3000e-02    8.209e-03  
  5.4000e-02    8.783e-03  
  5.5000e-02    9.190e-03  
  5.6000e-02    9.444e-03  
  5.7000e-02    9.566e-03  
  5.8000e-02    9.574e-03  
  5.9000e-02    9.490e-03  
  6.0000e-02    9.331e-03  
  6.1000e-02    9.113e-03  
  6.2000e-02    8.850e-03  
  6.3000e-02    8.555e-03  
  6.4000e-02    8.237e-03  
  6.5000e-02    7.907e-03  
  6.6000e-02    7.569e-03  
  6.7000e-02    7.231e-03  
  6.8000e-02    6.895e-03  
  6.9000e-02    6.566e-03  
  7.0000e-02    6.245e-03  
  7.1000e-02    5.935e-03  
  7.2000e-02    5.636e-03  
  7.3000e-02    5.350e-03  
  7.4000e-02    5.077e-03  
  7.5000e-02    4.817e-03  
  7.6000e-02    4.570e-03  
  7.7000e-02    4.336e-03  
  7.8000e-02    4.115e-03  
  7.9000e-02    3.906e-03  
  8.0000e-02    3.709e-03  
  8.1000e-02    3.523e-03  
  8.2000e-02    3.349e-03  
  8.3000e-02    3.185e-03  
  8.4000e-02    3.032e-03  
  8.5000e-02    2.888e-03  
  8.6000e-02    2.753e-03  
  8.7000e-02    2.628e-03  
  8.8000e-02    2.511e-03  
  8.9000e-02    2.401e-03  
  9.0000e-02    2.300e-03  
  9.1000e-02    2.206e-03  
  9.2000e-02    2.119e-03  
  9.3000e-02    2.038e-03  
  9.4000e-02    1.964e-03  
  9.5000e-02    1.896e-03  
  9.6000e-02    1.833e-03  
  9.7000e-02    1.776e-03  
  9.8000e-02    1.725e-03  
  9.9000e-02    1.678e-03  
    0.10000     1.636e-03  
y
-----------------------------------------------
 ******  
 *sample netlist for bsim6.0

  ******  dc transfer curves tnom=  25.000 temp=  25.000 *****

   *** source        0:vgate =   -0.4000        ***

x

        volt    param        param        param        param      
                    ids          gx           gx2          gx3    
   -0.10000    -9.326e-06   -1.780e-04   -1.739e-03    1.061e-03  
 -9.9000e-02   -9.237e-06   -2.712e-02     -0.3519      -1.6332   
 -9.8000e-02   -9.148e-06    8.920e-05    -26.9453    -350.1499   
 -9.7000e-02   -9.059e-06    8.930e-05     27.2125    -2.659e+04  
 -9.6000e-02   -8.969e-06    8.939e-05    9.316e-05    5.415e+04  
 -9.5000e-02   -8.879e-06    8.948e-05    9.315e-05   -2.721e+04  
 -9.4000e-02   -8.790e-06    8.958e-05    9.312e-05   -1.220e-05  
 -9.3000e-02   -8.700e-06    8.967e-05    9.309e-05   -2.473e-05  
 -9.2000e-02   -8.610e-06    8.976e-05    9.304e-05   -3.712e-05  
 -9.1000e-02   -8.520e-06    8.986e-05    9.298e-05   -4.937e-05  
 -9.0000e-02   -8.430e-06    8.995e-05    9.290e-05   -6.149e-05  
 -8.9000e-02   -8.340e-06    9.004e-05    9.282e-05   -7.348e-05  
 -8.8000e-02   -8.250e-06    9.013e-05    9.272e-05   -8.535e-05  
 -8.7000e-02   -8.160e-06    9.023e-05    9.261e-05   -9.711e-05  
 -8.6000e-02   -8.069e-06    9.032e-05    9.249e-05   -1.088e-04  
 -8.5000e-02   -7.979e-06    9.041e-05    9.236e-05   -1.203e-04  
 -8.4000e-02   -7.888e-06    9.050e-05    9.222e-05   -1.318e-04  
 -8.3000e-02   -7.797e-06    9.060e-05    9.206e-05   -1.432e-04  
 -8.2000e-02   -7.707e-06    9.069e-05    9.190e-05   -1.545e-04  
 -8.1000e-02   -7.616e-06    9.078e-05    9.172e-05   -1.657e-04  
 -8.0000e-02   -7.525e-06    9.087e-05    9.153e-05   -1.769e-04  
 -7.9000e-02   -7.434e-06    9.096e-05    9.133e-05   -1.880e-04  
 -7.8000e-02   -7.343e-06    9.105e-05    9.112e-05   -1.991e-04  
 -7.7000e-02   -7.251e-06    9.114e-05    9.090e-05   -2.102e-04  
 -7.6000e-02   -7.160e-06    9.123e-05    9.067e-05   -2.213e-04  
 -7.5000e-02   -7.069e-06    9.132e-05    9.042e-05   -2.324e-04  
 -7.4000e-02   -6.977e-06    9.141e-05    9.017e-05   -2.435e-04  
 -7.3000e-02   -6.885e-06    9.150e-05    8.990e-05   -2.546e-04  
 -7.2000e-02   -6.794e-06    9.159e-05    8.963e-05   -2.658e-04  
 -7.1000e-02   -6.702e-06    9.168e-05    8.934e-05   -2.770e-04  
 -7.0000e-02   -6.610e-06    9.177e-05    8.904e-05   -2.883e-04  
 -6.9000e-02   -6.518e-06    9.186e-05    8.873e-05   -2.997e-04  
 -6.8000e-02   -6.426e-06    9.195e-05    8.841e-05   -3.112e-04  
 -6.7000e-02   -6.334e-06    9.203e-05    8.807e-05   -3.228e-04  
 -6.6000e-02   -6.242e-06    9.212e-05    8.772e-05   -3.346e-04  
 -6.5000e-02   -6.150e-06    9.221e-05    8.737e-05   -3.466e-04  
 -6.4000e-02   -6.057e-06    9.230e-05    8.699e-05   -3.587e-04  
 -6.3000e-02   -5.965e-06    9.238e-05    8.661e-05   -3.710e-04  
 -6.2000e-02   -5.872e-06    9.247e-05    8.621e-05   -3.836e-04  
 -6.1000e-02   -5.780e-06    9.255e-05    8.581e-05   -3.964e-04  
 -6.0000e-02   -5.687e-06    9.264e-05    8.538e-05   -4.094e-04  
 -5.9000e-02   -5.594e-06    9.272e-05    8.495e-05   -4.228e-04  
 -5.8000e-02   -5.501e-06    9.281e-05    8.450e-05   -4.364e-04  
 -5.7000e-02   -5.408e-06    9.289e-05    8.403e-05   -4.504e-04  
 -5.6000e-02   -5.315e-06    9.297e-05    8.355e-05   -4.646e-04  
 -5.5000e-02   -5.222e-06    9.306e-05    8.306e-05   -4.792e-04  
 -5.4000e-02   -5.129e-06    9.314e-05    8.255e-05   -4.941e-04  
 -5.3000e-02   -5.035e-06    9.322e-05    8.202e-05   -5.093e-04  
 -5.2000e-02   -4.942e-06    9.330e-05    8.148e-05   -5.249e-04  
 -5.1000e-02   -4.849e-06    9.338e-05    8.093e-05   -5.406e-04  
 -5.0000e-02   -4.755e-06    9.346e-05    8.035e-05   -5.566e-04  
 -4.9000e-02   -4.661e-06    9.354e-05    7.976e-05   -5.728e-04  
 -4.8000e-02   -4.568e-06    9.362e-05    7.916e-05   -5.890e-04  
 -4.7000e-02   -4.474e-06    9.370e-05    7.854e-05   -6.052e-04  
 -4.6000e-02   -4.380e-06    9.377e-05    7.790e-05   -6.213e-04  
 -4.5000e-02   -4.286e-06    9.385e-05    7.725e-05   -6.370e-04  
 -4.4000e-02   -4.192e-06    9.393e-05    7.658e-05   -6.521e-04  
 -4.3000e-02   -4.098e-06    9.400e-05    7.590e-05   -6.666e-04  
 -4.2000e-02   -4.004e-06    9.407e-05    7.521e-05   -6.801e-04  
 -4.1000e-02   -3.910e-06    9.415e-05    7.451e-05   -6.924e-04  
 -4.0000e-02   -3.815e-06    9.422e-05    7.379e-05   -7.031e-04  
 -3.9000e-02   -3.721e-06    9.429e-05    7.308e-05   -7.122e-04  
 -3.8000e-02   -3.627e-06    9.437e-05    7.235e-05   -7.193e-04  
 -3.7000e-02   -3.532e-06    9.444e-05    7.162e-05   -7.243e-04  
 -3.6000e-02   -3.438e-06    9.451e-05    7.090e-05   -7.272e-04  
 -3.5000e-02   -3.343e-06    9.458e-05    7.017e-05   -7.282e-04  
 -3.4000e-02   -3.248e-06    9.464e-05    6.944e-05   -7.276e-04  
 -3.3000e-02   -3.153e-06    9.471e-05    6.872e-05   -7.262e-04  
 -3.2000e-02   -3.059e-06    9.478e-05    6.799e-05   -7.250e-04  
 -3.1000e-02   -2.964e-06    9.485e-05    6.726e-05   -7.255e-04  
 -3.0000e-02   -2.869e-06    9.491e-05    6.652e-05   -7.300e-04  
 -2.9000e-02   -2.774e-06    9.498e-05    6.576e-05   -7.411e-04  
 -2.8000e-02   -2.679e-06    9.504e-05    6.496e-05   -7.620e-04  
 -2.7000e-02   -2.583e-06    9.510e-05    6.411e-05   -7.967e-04  
 -2.6000e-02   -2.488e-06    9.517e-05    6.319e-05   -8.495e-04  
 -2.5000e-02   -2.393e-06    9.523e-05    6.216e-05   -9.251e-04  
 -2.4000e-02   -2.297e-06    9.529e-05    6.099e-05   -1.028e-03  
 -2.3000e-02   -2.202e-06    9.535e-05    5.966e-05   -1.164e-03  
 -2.2000e-02   -2.107e-06    9.540e-05    5.811e-05   -1.336e-03  
 -2.1000e-02   -2.011e-06    9.546e-05    5.632e-05   -1.546e-03  
 -2.0000e-02   -1.916e-06    9.551e-05    5.423e-05   -1.795e-03  
 -1.9000e-02   -1.820e-06    9.556e-05    5.183e-05   -2.083e-03  
 -1.8000e-02   -1.724e-06    9.560e-05    4.907e-05   -2.405e-03  
 -1.7000e-02   -1.629e-06    9.565e-05    4.595e-05   -2.755e-03  
 -1.6000e-02   -1.533e-06    9.568e-05    4.246e-05   -3.121e-03  
 -1.5000e-02   -1.437e-06    9.572e-05    3.862e-05   -3.490e-03  
 -1.4000e-02   -1.341e-06    9.575e-05    3.445e-05   -3.845e-03  
 -1.3000e-02   -1.246e-06    9.577e-05    3.001e-05   -4.169e-03  
 -1.2000e-02   -1.150e-06    9.579e-05    2.538e-05   -4.439e-03  
 -1.1000e-02   -1.054e-06    9.581e-05    2.064e-05   -4.634e-03  
 -1.0000e-02   -9.581e-07    9.582e-05    1.592e-05   -4.734e-03  
 -9.0000e-03   -8.623e-07    9.583e-05    1.134e-05   -4.720e-03  
 -8.0000e-03   -7.665e-07    9.583e-05    7.040e-06   -4.580e-03  
 -7.0000e-03   -6.706e-07    9.583e-05    3.145e-06   -4.304e-03  
 -6.0000e-03   -5.748e-07    9.583e-05   -2.137e-07   -3.895e-03  
 -5.0000e-03   -4.790e-07    9.582e-05   -2.929e-06   -3.359e-03  
 -4.0000e-03   -3.832e-07    9.582e-05   -4.920e-06   -2.715e-03  
 -3.0000e-03   -2.874e-07    9.581e-05   -6.141e-06   -1.991e-03  
 -2.0000e-03   -1.916e-07    9.580e-05   -6.588e-06   -1.221e-03  
 -1.0000e-03   -9.579e-08    9.580e-05   -6.299e-06   -4.467e-04  
    0.            0.         9.580e-05   -5.357e-06    2.890e-04  
  1.0000e-03    9.579e-08    9.579e-05   -3.885e-06    9.420e-04  
  2.0000e-03    1.916e-07    9.579e-05   -2.039e-06    1.472e-03  
  3.0000e-03    2.874e-07    9.580e-05      0.         1.846e-03  
  4.0000e-03    3.832e-07    9.580e-05    2.039e-06    2.039e-03  
  5.0000e-03    4.790e-07    9.580e-05    3.885e-06    2.039e-03  
  6.0000e-03    5.748e-07    9.581e-05    5.357e-06    1.846e-03  
  7.0000e-03    6.706e-07    9.582e-05    6.299e-06    1.472e-03  
  8.0000e-03    7.665e-07    9.582e-05    6.588e-06    9.420e-04  
  9.0000e-03    8.623e-07    9.583e-05    6.141e-06    2.890e-04  
  1.0000e-02    9.581e-07    9.583e-05    4.920e-06   -4.467e-04  
  1.1000e-02    1.054e-06    9.583e-05    2.929e-06   -1.221e-03  
  1.2000e-02    1.150e-06    9.583e-05    2.137e-07   -1.991e-03  
  1.3000e-02    1.246e-06    9.582e-05   -3.145e-06   -2.715e-03  
  1.4000e-02    1.341e-06    9.581e-05   -7.040e-06   -3.359e-03  
  1.5000e-02    1.437e-06    9.579e-05   -1.134e-05   -3.895e-03  
  1.6000e-02    1.533e-06    9.577e-05   -1.592e-05   -4.304e-03  
  1.7000e-02    1.629e-06    9.575e-05   -2.064e-05   -4.580e-03  
  1.8000e-02    1.724e-06    9.572e-05   -2.538e-05   -4.720e-03  
  1.9000e-02    1.820e-06    9.568e-05   -3.001e-05   -4.734e-03  
  2.0000e-02    1.916e-06    9.565e-05   -3.445e-05   -4.634e-03  
  2.1000e-02    2.011e-06    9.560e-05   -3.862e-05   -4.439e-03  
  2.2000e-02    2.107e-06    9.556e-05   -4.246e-05   -4.169e-03  
  2.3000e-02    2.202e-06    9.551e-05   -4.595e-05   -3.845e-03  
  2.4000e-02    2.297e-06    9.546e-05   -4.907e-05   -3.490e-03  
  2.5000e-02    2.393e-06    9.540e-05   -5.183e-05   -3.121e-03  
  2.6000e-02    2.488e-06    9.535e-05   -5.423e-05   -2.755e-03  
  2.7000e-02    2.583e-06    9.529e-05   -5.632e-05   -2.405e-03  
  2.8000e-02    2.679e-06    9.523e-05   -5.811e-05   -2.083e-03  
  2.9000e-02    2.774e-06    9.517e-05   -5.966e-05   -1.795e-03  
  3.0000e-02    2.869e-06    9.510e-05   -6.099e-05   -1.546e-03  
  3.1000e-02    2.964e-06    9.504e-05   -6.216e-05   -1.336e-03  
  3.2000e-02    3.059e-06    9.498e-05   -6.319e-05   -1.164e-03  
  3.3000e-02    3.153e-06    9.491e-05   -6.411e-05   -1.028e-03  
  3.4000e-02    3.248e-06    9.485e-05   -6.496e-05   -9.251e-04  
  3.5000e-02    3.343e-06    9.478e-05   -6.576e-05   -8.495e-04  
  3.6000e-02    3.438e-06    9.471e-05   -6.652e-05   -7.967e-04  
  3.7000e-02    3.532e-06    9.464e-05   -6.726e-05   -7.620e-04  
  3.8000e-02    3.627e-06    9.458e-05   -6.799e-05   -7.411e-04  
  3.9000e-02    3.721e-06    9.451e-05   -6.872e-05   -7.300e-04  
  4.0000e-02    3.815e-06    9.444e-05   -6.944e-05   -7.255e-04  
  4.1000e-02    3.910e-06    9.437e-05   -7.017e-05   -7.250e-04  
  4.2000e-02    4.004e-06    9.429e-05   -7.090e-05   -7.262e-04  
  4.3000e-02    4.098e-06    9.422e-05   -7.162e-05   -7.276e-04  
  4.4000e-02    4.192e-06    9.415e-05   -7.235e-05   -7.282e-04  
  4.5000e-02    4.286e-06    9.407e-05   -7.308e-05   -7.272e-04  
  4.6000e-02    4.380e-06    9.400e-05   -7.379e-05   -7.243e-04  
  4.7000e-02    4.474e-06    9.393e-05   -7.451e-05   -7.193e-04  
  4.8000e-02    4.568e-06    9.385e-05   -7.521e-05   -7.122e-04  
  4.9000e-02    4.661e-06    9.377e-05   -7.590e-05   -7.031e-04  
  5.0000e-02    4.755e-06    9.370e-05   -7.658e-05   -6.924e-04  
  5.1000e-02    4.849e-06    9.362e-05   -7.725e-05   -6.801e-04  
  5.2000e-02    4.942e-06    9.354e-05   -7.790e-05   -6.666e-04  
  5.3000e-02    5.035e-06    9.346e-05   -7.854e-05   -6.521e-04  
  5.4000e-02    5.129e-06    9.338e-05   -7.916e-05   -6.370e-04  
  5.5000e-02    5.222e-06    9.330e-05   -7.976e-05   -6.213e-04  
  5.6000e-02    5.315e-06    9.322e-05   -8.035e-05   -6.052e-04  
  5.7000e-02    5.408e-06    9.314e-05   -8.093e-05   -5.890e-04  
  5.8000e-02    5.501e-06    9.306e-05   -8.148e-05   -5.728e-04  
  5.9000e-02    5.594e-06    9.297e-05   -8.202e-05   -5.566e-04  
  6.0000e-02    5.687e-06    9.289e-05   -8.255e-05   -5.406e-04  
  6.1000e-02    5.780e-06    9.281e-05   -8.306e-05   -5.249e-04  
  6.2000e-02    5.872e-06    9.272e-05   -8.355e-05   -5.093e-04  
  6.3000e-02    5.965e-06    9.264e-05   -8.403e-05   -4.941e-04  
  6.4000e-02    6.057e-06    9.255e-05   -8.450e-05   -4.792e-04  
  6.5000e-02    6.150e-06    9.247e-05   -8.495e-05   -4.646e-04  
  6.6000e-02    6.242e-06    9.238e-05   -8.538e-05   -4.504e-04  
  6.7000e-02    6.334e-06    9.230e-05   -8.581e-05   -4.364e-04  
  6.8000e-02    6.426e-06    9.221e-05   -8.621e-05   -4.228e-04  
  6.9000e-02    6.518e-06    9.212e-05   -8.661e-05   -4.094e-04  
  7.0000e-02    6.610e-06    9.203e-05   -8.699e-05   -3.964e-04  
  7.1000e-02    6.702e-06    9.195e-05   -8.737e-05   -3.836e-04  
  7.2000e-02    6.794e-06    9.186e-05   -8.772e-05   -3.710e-04  
  7.3000e-02    6.885e-06    9.177e-05   -8.807e-05   -3.587e-04  
  7.4000e-02    6.977e-06    9.168e-05   -8.841e-05   -3.466e-04  
  7.5000e-02    7.069e-06    9.159e-05   -8.873e-05   -3.346e-04  
  7.6000e-02    7.160e-06    9.150e-05   -8.904e-05   -3.228e-04  
  7.7000e-02    7.251e-06    9.141e-05   -8.934e-05   -3.112e-04  
  7.8000e-02    7.343e-06    9.132e-05   -8.963e-05   -2.997e-04  
  7.9000e-02    7.434e-06    9.123e-05   -8.990e-05   -2.883e-04  
  8.0000e-02    7.525e-06    9.114e-05   -9.017e-05   -2.770e-04  
  8.1000e-02    7.616e-06    9.105e-05   -9.042e-05   -2.658e-04  
  8.2000e-02    7.707e-06    9.096e-05   -9.067e-05   -2.546e-04  
  8.3000e-02    7.797e-06    9.087e-05   -9.090e-05   -2.435e-04  
  8.4000e-02    7.888e-06    9.078e-05   -9.112e-05   -2.324e-04  
  8.5000e-02    7.979e-06    9.069e-05   -9.133e-05   -2.213e-04  
  8.6000e-02    8.069e-06    9.060e-05   -9.153e-05   -2.102e-04  
  8.7000e-02    8.160e-06    9.050e-05   -9.172e-05   -1.991e-04  
  8.8000e-02    8.250e-06    9.041e-05   -9.190e-05   -1.880e-04  
  8.9000e-02    8.340e-06    9.032e-05   -9.206e-05   -1.769e-04  
  9.0000e-02    8.430e-06    9.023e-05   -9.222e-05   -1.657e-04  
  9.1000e-02    8.520e-06    9.013e-05   -9.236e-05   -1.545e-04  
  9.2000e-02    8.610e-06    9.004e-05   -9.249e-05   -1.432e-04  
  9.3000e-02    8.700e-06    8.995e-05   -9.261e-05   -1.318e-04  
  9.4000e-02    8.790e-06    8.986e-05   -9.272e-05   -1.203e-04  
  9.5000e-02    8.879e-06    8.976e-05   -9.282e-05   -1.088e-04  
  9.6000e-02    8.969e-06    8.967e-05   -9.290e-05   -9.711e-05  
  9.7000e-02    9.059e-06    8.958e-05   -9.298e-05   -8.535e-05  
  9.8000e-02    9.148e-06    8.948e-05   -9.304e-05   -7.348e-05  
  9.9000e-02    9.237e-06    8.939e-05   -9.309e-05   -6.149e-05  
    0.10000     9.326e-06    8.930e-05   -9.312e-05   -4.937e-05  
y
x

        volt    param      
                    gx4    
   -0.10000     6.074e-03  
 -9.9000e-02      1.6679   
 -9.8000e-02   -1.634e+03  
 -9.7000e-02   -3.485e+05  
 -9.6000e-02   -2.624e+07  
 -9.5000e-02    8.075e+07  
 -9.4000e-02   -8.137e+07  
 -9.3000e-02    2.721e+07  
 -9.2000e-02   -1.253e-02  
 -9.1000e-02   -1.239e-02  
 -9.0000e-02   -1.225e-02  
 -8.9000e-02   -1.212e-02  
 -8.8000e-02   -1.199e-02  
 -8.7000e-02   -1.187e-02  
 -8.6000e-02   -1.176e-02  
 -8.5000e-02   -1.165e-02  
 -8.4000e-02   -1.155e-02  
 -8.3000e-02   -1.146e-02  
 -8.2000e-02   -1.138e-02  
 -8.1000e-02   -1.131e-02  
 -8.0000e-02   -1.124e-02  
 -7.9000e-02   -1.119e-02  
 -7.8000e-02   -1.114e-02  
 -7.7000e-02   -1.111e-02  
 -7.6000e-02   -1.109e-02  
 -7.5000e-02   -1.108e-02  
 -7.4000e-02   -1.108e-02  
 -7.3000e-02   -1.109e-02  
 -7.2000e-02   -1.112e-02  
 -7.1000e-02   -1.117e-02  
 -7.0000e-02   -1.123e-02  
 -6.9000e-02   -1.130e-02  
 -6.8000e-02   -1.140e-02  
 -6.7000e-02   -1.151e-02  
 -6.6000e-02   -1.163e-02  
 -6.5000e-02   -1.178e-02  
 -6.4000e-02   -1.194e-02  
 -6.3000e-02   -1.213e-02  
 -6.2000e-02   -1.233e-02  
 -6.1000e-02   -1.256e-02  
 -6.0000e-02   -1.280e-02  
 -5.9000e-02   -1.306e-02  
 -5.8000e-02   -1.334e-02  
 -5.7000e-02   -1.364e-02  
 -5.6000e-02   -1.394e-02  
 -5.5000e-02   -1.426e-02  
 -5.4000e-02   -1.459e-02  
 -5.3000e-02   -1.491e-02  
 -5.2000e-02   -1.522e-02  
 -5.1000e-02   -1.552e-02  
 -5.0000e-02   -1.578e-02  
 -4.9000e-02   -1.600e-02  
 -4.8000e-02   -1.616e-02  
 -4.7000e-02   -1.623e-02  
 -4.6000e-02   -1.620e-02  
 -4.5000e-02   -1.603e-02  
 -4.4000e-02   -1.571e-02  
 -4.3000e-02   -1.519e-02  
 -4.2000e-02   -1.446e-02  
 -4.1000e-02   -1.349e-02  
 -4.0000e-02   -1.226e-02  
 -3.9000e-02   -1.077e-02  
 -3.8000e-02   -9.038e-03  
 -3.7000e-02   -7.094e-03  
 -3.6000e-02   -5.014e-03  
 -3.5000e-02   -2.917e-03  
 -3.4000e-02   -9.732e-04  
 -3.3000e-02    5.803e-04  
 -3.2000e-02    1.434e-03  
 -3.1000e-02    1.200e-03  
 -3.0000e-02   -5.904e-04  
 -2.9000e-02   -4.475e-03  
 -2.8000e-02   -1.104e-02  
 -2.7000e-02   -2.091e-02  
 -2.6000e-02   -3.467e-02  
 -2.5000e-02   -5.281e-02  
 -2.4000e-02   -7.568e-02  
 -2.3000e-02     -0.1033   
 -2.2000e-02     -0.1355   
 -2.1000e-02     -0.1715   
 -2.0000e-02     -0.2102   
 -1.9000e-02     -0.2497   
 -1.8000e-02     -0.2879   
 -1.7000e-02     -0.3221   
 -1.6000e-02     -0.3492   
 -1.5000e-02     -0.3659   
 -1.4000e-02     -0.3691   
 -1.3000e-02     -0.3557   
 -1.2000e-02     -0.3232   
 -1.1000e-02     -0.2699   
 -1.0000e-02     -0.1952   
 -9.0000e-03   -9.992e-02  
 -8.0000e-03    1.342e-02  
 -7.0000e-03      0.1405   
 -6.0000e-03      0.2753   
 -5.0000e-03      0.4100   
 -4.0000e-03      0.5358   
 -3.0000e-03      0.6435   
 -2.0000e-03      0.7241   
 -1.0000e-03      0.7697   
    0.            0.7746   
  1.0000e-03      0.7357   
  2.0000e-03      0.6530   
  3.0000e-03      0.5301   
  4.0000e-03      0.3736   
  5.0000e-03      0.1931   
  6.0000e-03    2.819e-14  
  7.0000e-03     -0.1931   
  8.0000e-03     -0.3736   
  9.0000e-03     -0.5301   
  1.0000e-02     -0.6530   
  1.1000e-02     -0.7357   
  1.2000e-02     -0.7746   
  1.3000e-02     -0.7697   
  1.4000e-02     -0.7241   
  1.5000e-02     -0.6435   
  1.6000e-02     -0.5358   
  1.7000e-02     -0.4100   
  1.8000e-02     -0.2753   
  1.9000e-02     -0.1405   
  2.0000e-02   -1.342e-02  
  2.1000e-02    9.992e-02  
  2.2000e-02      0.1952   
  2.3000e-02      0.2699   
  2.4000e-02      0.3232   
  2.5000e-02      0.3557   
  2.6000e-02      0.3691   
  2.7000e-02      0.3659   
  2.8000e-02      0.3492   
  2.9000e-02      0.3221   
  3.0000e-02      0.2879   
  3.1000e-02      0.2497   
  3.2000e-02      0.2102   
  3.3000e-02      0.1715   
  3.4000e-02      0.1355   
  3.5000e-02      0.1033   
  3.6000e-02    7.568e-02  
  3.7000e-02    5.281e-02  
  3.8000e-02    3.467e-02  
  3.9000e-02    2.091e-02  
  4.0000e-02    1.104e-02  
  4.1000e-02    4.475e-03  
  4.2000e-02    5.904e-04  
  4.3000e-02   -1.200e-03  
  4.4000e-02   -1.434e-03  
  4.5000e-02   -5.803e-04  
  4.6000e-02    9.732e-04  
  4.7000e-02    2.917e-03  
  4.8000e-02    5.014e-03  
  4.9000e-02    7.094e-03  
  5.0000e-02    9.038e-03  
  5.1000e-02    1.077e-02  
  5.2000e-02    1.226e-02  
  5.3000e-02    1.349e-02  
  5.4000e-02    1.446e-02  
  5.5000e-02    1.519e-02  
  5.6000e-02    1.571e-02  
  5.7000e-02    1.603e-02  
  5.8000e-02    1.620e-02  
  5.9000e-02    1.623e-02  
  6.0000e-02    1.616e-02  
  6.1000e-02    1.600e-02  
  6.2000e-02    1.578e-02  
  6.3000e-02    1.552e-02  
  6.4000e-02    1.522e-02  
  6.5000e-02    1.491e-02  
  6.6000e-02    1.459e-02  
  6.7000e-02    1.426e-02  
  6.8000e-02    1.394e-02  
  6.9000e-02    1.364e-02  
  7.0000e-02    1.334e-02  
  7.1000e-02    1.306e-02  
  7.2000e-02    1.280e-02  
  7.3000e-02    1.256e-02  
  7.4000e-02    1.233e-02  
  7.5000e-02    1.213e-02  
  7.6000e-02    1.194e-02  
  7.7000e-02    1.178e-02  
  7.8000e-02    1.163e-02  
  7.9000e-02    1.151e-02  
  8.0000e-02    1.140e-02  
  8.1000e-02    1.130e-02  
  8.2000e-02    1.123e-02  
  8.3000e-02    1.117e-02  
  8.4000e-02    1.112e-02  
  8.5000e-02    1.109e-02  
  8.6000e-02    1.108e-02  
  8.7000e-02    1.108e-02  
  8.8000e-02    1.109e-02  
  8.9000e-02    1.111e-02  
  9.0000e-02    1.114e-02  
  9.1000e-02    1.119e-02  
  9.2000e-02    1.124e-02  
  9.3000e-02    1.131e-02  
  9.4000e-02    1.138e-02  
  9.5000e-02    1.146e-02  
  9.6000e-02    1.155e-02  
  9.7000e-02    1.165e-02  
  9.8000e-02    1.176e-02  
  9.9000e-02    1.187e-02  
    0.10000     1.199e-02  
y
-----------------------------------------------

          ***** job concluded
1****** HSPICE -- G-2012.06 32-BIT (May 27 2012) RHEL32 ******                  
 ******  
 *sample netlist for bsim6.0

  ******  job statistics summary tnom=  25.000 temp=  25.000 *****
  
  
 ******  Machine Information  ******
 CPU:
 model name	: AMD Opteron(tm) Processor 248
 cpu MHz	: 2200.023
  
 OS:
 Linux version 2.6.9-22.EL (bhcompile@crowe.devel.redhat.com) (gcc version 3.4.4 20050721 (Red Hat 3.4.4-2)) #1 Mon Sep 19 17:49:49 EDT 2005


  ******  HSPICE Threads Information  ******

  Command Line Threads Count :     1
  Available CPU Count        :     1
  Actual Threads Count       :     1


  ******  Circuit Statistics  ******
  # nodes       =      14 # elements   =       5
  # resistors   =       0 # capacitors =       0 # inductors   =       0
  # mutual_inds =       0 # vccs       =       0 # vcvs        =       1
  # cccs        =       0 # ccvs       =       0 # volt_srcs   =       3
  # curr_srcs   =       0 # diodes     =       0 # bjts        =       0
  # jfets       =       0 # mosfets    =       0 # U elements  =       0
  # T elements  =       0 # W elements =       0 # B elements  =       0
  # S elements  =       0 # P elements =       0 # va device   =       1
  # vector_srcs =       0 # N elements =       0


  ******  Runtime Statistics (seconds)  ******

  analysis           time    # points   tot. iter  conv.iter
  op point           0.00           1           0
  dc sweep           0.12         603        1212
  readin             2.64
  errchk             0.05
  setup              0.00
  output             0.00


           peak memory used        112.89 megabytes
           total cpu time            2.81 seconds
           total elapsed time       12.38 seconds
           job started at     21:44:50 05/05/2013
           job ended   at     21:45:02 05/05/2013


 lic: Release hspice token(s) 
 lic: total license checkout elapse time:        0.21(s)


pVA concluded on Sun May  5 21:45:02 2013

