
Circuit: * NMOSFET: Benchmarking of B4SOI Stress Effect by Jane Xi 05/09/2003.

Warning: Pd = 0 is less than W.
Warning: Ps = 0 is less than W.
Circuit: * NMOSFET: Benchmarking of B4SOI Stress Effect by Jane Xi 05/09/2003.
Date: Thu Dec 16 23:37:42  2010


     * NMOSFET: Benchmarking of B4SOI Stress Effect by Jane Xi 05/09/2003.
     DC transfer characteristic  Thu Dec 16 23:37:42  2010
--------------------------------------------------------------------------------
Index   sweep           vd#branch       
--------------------------------------------------------------------------------
0	0.000000e+00	0.000000e+00	
1	2.000000e-02	-1.048701e-11	
2	4.000000e-02	-1.692281e-11	
3	6.000000e-02	-2.100432e-11	
4	8.000000e-02	-2.418000e-11	
5	1.000000e-01	-2.701762e-11	
6	1.200000e-01	-2.970798e-11	
7	1.400000e-01	-3.233327e-11	
8	1.600000e-01	-3.494305e-11	
9	1.800000e-01	-3.757452e-11	
10	2.000000e-01	-4.025834e-11	
11	2.200000e-01	-4.302066e-11	
12	2.400000e-01	-4.588416e-11	
13	2.600000e-01	-4.886876e-11	
14	2.800000e-01	-5.199227e-11	
15	3.000000e-01	-5.527085e-11	
16	3.200000e-01	-5.871951e-11	
17	3.400000e-01	-6.235241e-11	
18	3.600000e-01	-6.618320e-11	
19	3.800000e-01	-7.022522e-11	
20	4.000000e-01	-7.449168e-11	
21	4.200000e-01	-7.899586e-11	
22	4.400000e-01	-8.375111e-11	
23	4.600000e-01	-8.877109e-11	
24	4.800000e-01	-9.406972e-11	
25	5.000000e-01	-9.966133e-11	
26	5.200000e-01	-1.055606e-10	
27	5.400000e-01	-1.117829e-10	
28	5.600000e-01	-1.183438e-10	
29	5.800000e-01	-1.252596e-10	
30	6.000000e-01	-1.325473e-10	
31	6.200000e-01	-1.402242e-10	
32	6.400000e-01	-1.483085e-10	
33	6.600000e-01	-1.568188e-10	
34	6.800000e-01	-1.657749e-10	
35	7.000000e-01	-1.751967e-10	
36	7.200000e-01	-1.851055e-10	
37	7.400000e-01	-1.955225e-10	
38	7.600000e-01	-2.064707e-10	
39	7.800000e-01	-2.179733e-10	
40	8.000000e-01	-2.300546e-10	
41	8.200000e-01	-2.427394e-10	
42	8.400000e-01	-2.560543e-10	
43	8.600000e-01	-2.700259e-10	
44	8.800000e-01	-2.846825e-10	
45	9.000000e-01	-3.000527e-10	
46	9.200000e-01	-3.161672e-10	
47	9.400000e-01	-3.330569e-10	
48	9.600000e-01	-3.507546e-10	
49	9.800000e-01	-3.692932e-10	
50	1.000000e+00	-3.887086e-10	
51	1.020000e+00	-4.090366e-10	
52	1.040000e+00	-4.303148e-10	
53	1.060000e+00	-4.525824e-10	
54	1.080000e+00	-4.758808e-10	
55	1.100000e+00	-5.002521e-10	
56	1.120000e+00	-5.257409e-10	
57	1.140000e+00	-5.523936e-10	
58	1.160000e+00	-5.802576e-10	
59	1.180000e+00	-6.093855e-10	
60	1.200000e+00	-6.398282e-10	
61	1.220000e+00	-6.716447e-10	
62	1.240000e+00	-7.048897e-10	
63	1.260000e+00	-7.396301e-10	
64	1.280000e+00	-7.759280e-10	
65	1.300000e+00	-8.138574e-10	
66	1.320000e+00	-8.534877e-10	
67	1.340000e+00	-8.949043e-10	
68	1.360000e+00	-9.381880e-10	
69	1.380000e+00	-9.834358e-10	
70	1.400000e+00	-1.030741e-09	
71	1.420000e+00	-1.080219e-09	
72	1.440000e+00	-1.131981e-09	
73	1.460000e+00	-1.186162e-09	
74	1.480000e+00	-1.242897e-09	
75	0.000000e+00	3.800293e-15	
76	2.000000e-02	-4.038938e-06	
77	4.000000e-02	-7.322424e-06	
78	6.000000e-02	-9.886401e-06	
79	8.000000e-02	-1.181399e-05	
80	1.000000e-01	-1.324269e-05	
81	1.200000e-01	-1.433451e-05	
82	1.400000e-01	-1.522302e-05	
83	1.600000e-01	-1.599182e-05	
84	1.800000e-01	-1.668708e-05	
85	2.000000e-01	-1.733439e-05	
86	2.200000e-01	-1.794900e-05	
87	2.400000e-01	-1.854067e-05	
88	2.600000e-01	-1.911604e-05	
89	2.800000e-01	-1.967984e-05	
90	3.000000e-01	-2.023557e-05	
91	3.200000e-01	-2.078585e-05	
92	3.400000e-01	-2.133274e-05	
93	3.600000e-01	-2.187786e-05	
94	3.800000e-01	-2.242258e-05	
95	4.000000e-01	-2.296810e-05	
96	4.200000e-01	-2.351553e-05	
97	4.400000e-01	-2.406591e-05	
98	4.600000e-01	-2.462043e-05	
99	4.800000e-01	-2.518031e-05	
100	5.000000e-01	-2.574701e-05	
101	5.200000e-01	-2.632224e-05	
102	5.400000e-01	-2.690793e-05	
103	5.600000e-01	-2.750660e-05	
104	5.800000e-01	-2.812111e-05	
105	6.000000e-01	-2.875504e-05	
106	6.200000e-01	-2.941227e-05	
107	6.400000e-01	-3.009798e-05	
108	6.600000e-01	-3.081744e-05	
109	6.800000e-01	-3.157729e-05	
110	7.000000e-01	-3.238446e-05	
111	7.200000e-01	-3.324662e-05	
112	7.400000e-01	-3.417175e-05	
113	7.600000e-01	-3.516784e-05	
114	7.800000e-01	-3.624246e-05	
115	8.000000e-01	-3.740225e-05	
116	8.200000e-01	-3.865243e-05	
117	8.400000e-01	-3.999636e-05	
118	8.600000e-01	-4.143528e-05	
119	8.800000e-01	-4.296824e-05	
120	9.000000e-01	-4.459229e-05	
121	9.200000e-01	-4.630282e-05	
122	9.400000e-01	-4.809404e-05	
123	9.600000e-01	-4.995949e-05	
124	9.800000e-01	-5.189310e-05	
125	1.000000e+00	-5.388648e-05	
126	1.020000e+00	-5.593541e-05	
127	1.040000e+00	-5.803363e-05	
128	1.060000e+00	-6.017619e-05	
129	1.080000e+00	-6.235880e-05	
130	1.100000e+00	-6.457768e-05	
131	1.120000e+00	-6.682976e-05	
132	1.140000e+00	-6.911214e-05	
133	1.160000e+00	-7.142271e-05	
134	1.180000e+00	-7.375968e-05	
135	1.200000e+00	-7.612111e-05	
136	1.220000e+00	-7.850590e-05	
137	1.240000e+00	-8.091274e-05	
138	1.260000e+00	-8.334062e-05	
139	1.280000e+00	-8.578859e-05	
140	1.300000e+00	-8.825577e-05	
141	1.320000e+00	-9.074130e-05	
142	1.340000e+00	-9.324430e-05	
143	1.360000e+00	-9.576383e-05	
144	1.380000e+00	-9.829886e-05	
145	1.400000e+00	-1.008482e-04	
146	1.420000e+00	-1.034104e-04	
147	1.440000e+00	-1.059840e-04	
148	1.460000e+00	-1.085669e-04	
149	1.480000e+00	-1.111571e-04	
150	0.000000e+00	1.150500e-11	
151	2.000000e-02	-2.520324e-05	
152	4.000000e-02	-4.880672e-05	
153	6.000000e-02	-7.084481e-05	
154	8.000000e-02	-9.135737e-05	
155	1.000000e-01	-1.103905e-04	
156	1.200000e-01	-1.279957e-04	
157	1.400000e-01	-1.442288e-04	
158	1.600000e-01	-1.591477e-04	
159	1.800000e-01	-1.728111e-04	
160	2.000000e-01	-1.852776e-04	
161	2.200000e-01	-1.966054e-04	
162	2.400000e-01	-2.068532e-04	
163	2.600000e-01	-2.160803e-04	
164	2.800000e-01	-2.243491e-04	
165	3.000000e-01	-2.317267e-04	
166	3.200000e-01	-2.382864e-04	
167	3.400000e-01	-2.441082e-04	
168	3.600000e-01	-2.492762e-04	
169	3.800000e-01	-2.538748e-04	
170	4.000000e-01	-2.579837e-04	
171	4.200000e-01	-2.616746e-04	
172	4.400000e-01	-2.650101e-04	
173	4.600000e-01	-2.680432e-04	
174	4.800000e-01	-2.708184e-04	
175	5.000000e-01	-2.733732e-04	
176	5.200000e-01	-2.757387e-04	
177	5.400000e-01	-2.779419e-04	
178	5.600000e-01	-2.800047e-04	
179	5.800000e-01	-2.819474e-04	
180	6.000000e-01	-2.837868e-04	
181	6.200000e-01	-2.855388e-04	
182	6.400000e-01	-2.872178e-04	
183	6.600000e-01	-2.888374e-04	
184	6.800000e-01	-2.904114e-04	
185	7.000000e-01	-2.919538e-04	
186	7.200000e-01	-2.934778e-04	
187	7.400000e-01	-2.950002e-04	
188	7.600000e-01	-2.965366e-04	
189	7.800000e-01	-2.981047e-04	
190	8.000000e-01	-2.997228e-04	
191	8.200000e-01	-3.014101e-04	
192	8.400000e-01	-3.031853e-04	
193	8.600000e-01	-3.050660e-04	
194	8.800000e-01	-3.070673e-04	
195	9.000000e-01	-3.092005e-04	
196	9.200000e-01	-3.114724e-04	
197	9.400000e-01	-3.138844e-04	
198	9.600000e-01	-3.164329e-04	
199	9.800000e-01	-3.191096e-04	
200	1.000000e+00	-3.219026e-04	
201	1.020000e+00	-3.247982e-04	
202	1.040000e+00	-3.277815e-04	
203	1.060000e+00	-3.308378e-04	
204	1.080000e+00	-3.339533e-04	
205	1.100000e+00	-3.371157e-04	
206	1.120000e+00	-3.403143e-04	
207	1.140000e+00	-3.435403e-04	
208	1.160000e+00	-3.467857e-04	
209	1.180000e+00	-3.500449e-04	
210	1.200000e+00	-3.533128e-04	
211	1.220000e+00	-3.565857e-04	
212	1.240000e+00	-3.598603e-04	
213	1.260000e+00	-3.631344e-04	
214	1.280000e+00	-3.664058e-04	
215	1.300000e+00	-3.696732e-04	
216	1.320000e+00	-3.729349e-04	
217	1.340000e+00	-3.761898e-04	
218	1.360000e+00	-3.794368e-04	
219	1.380000e+00	-3.826743e-04	
220	1.400000e+00	-3.859012e-04	
221	1.420000e+00	-3.891157e-04	
222	1.440000e+00	-3.923160e-04	
223	1.460000e+00	-3.954998e-04	
224	1.480000e+00	-3.986648e-04	
225	0.000000e+00	1.638724e-08	
226	2.000000e-02	-3.784144e-05	
227	4.000000e-02	-7.418109e-05	
228	6.000000e-02	-1.090163e-04	
229	8.000000e-02	-1.423679e-04	
230	1.000000e-01	-1.742641e-04	
231	1.200000e-01	-2.047389e-04	
232	1.400000e-01	-2.338302e-04	
233	1.600000e-01	-2.615781e-04	
234	1.800000e-01	-2.880235e-04	
235	2.000000e-01	-3.132069e-04	
236	2.200000e-01	-3.371677e-04	
237	2.400000e-01	-3.599445e-04	
238	2.600000e-01	-3.815742e-04	
239	2.800000e-01	-4.020923e-04	
240	3.000000e-01	-4.215328e-04	
241	3.200000e-01	-4.399283e-04	
242	3.400000e-01	-4.573101e-04	
243	3.600000e-01	-4.737080e-04	
244	3.800000e-01	-4.891503e-04	
245	4.000000e-01	-5.036642e-04	
246	4.200000e-01	-5.172754e-04	
247	4.400000e-01	-5.300083e-04	
248	4.600000e-01	-5.418862e-04	
249	4.800000e-01	-5.529319e-04	
250	5.000000e-01	-5.631687e-04	
251	5.200000e-01	-5.726224e-04	
252	5.400000e-01	-5.813236e-04	
253	5.600000e-01	-5.893092e-04	
254	5.800000e-01	-5.966234e-04	
255	6.000000e-01	-6.033164e-04	
256	6.200000e-01	-6.094418e-04	
257	6.400000e-01	-6.150541e-04	
258	6.600000e-01	-6.202055e-04	
259	6.800000e-01	-6.249452e-04	
260	7.000000e-01	-6.293176e-04	
261	7.200000e-01	-6.333628e-04	
262	7.400000e-01	-6.371160e-04	
263	7.600000e-01	-6.406084e-04	
264	7.800000e-01	-6.438673e-04	
265	8.000000e-01	-6.469168e-04	
266	8.200000e-01	-6.497777e-04	
267	8.400000e-01	-6.524686e-04	
268	8.600000e-01	-6.550057e-04	
269	8.800000e-01	-6.574033e-04	
270	9.000000e-01	-6.596741e-04	
271	9.200000e-01	-6.618294e-04	
272	9.400000e-01	-6.638791e-04	
273	9.600000e-01	-6.658324e-04	
274	9.800000e-01	-6.676971e-04	
275	1.000000e+00	-6.694806e-04	
276	1.020000e+00	-6.711895e-04	
277	1.040000e+00	-6.728298e-04	
278	1.060000e+00	-6.744070e-04	
279	1.080000e+00	-6.759263e-04	
280	1.100000e+00	-6.773925e-04	
281	1.120000e+00	-6.788100e-04	
282	1.140000e+00	-6.801833e-04	
283	1.160000e+00	-6.815164e-04	
284	1.180000e+00	-6.828136e-04	
285	1.200000e+00	-6.840789e-04	
286	1.220000e+00	-6.853166e-04	
287	1.240000e+00	-6.865308e-04	
288	1.260000e+00	-6.877262e-04	
289	1.280000e+00	-6.889074e-04	
290	1.300000e+00	-6.900794e-04	
291	1.320000e+00	-6.912475e-04	
292	1.340000e+00	-6.924175e-04	
293	1.360000e+00	-6.935953e-04	
294	1.380000e+00	-6.947874e-04	
295	1.400000e+00	-6.960005e-04	
296	1.420000e+00	-6.972416e-04	
297	1.440000e+00	-6.985176e-04	
298	1.460000e+00	-6.998356e-04	
299	1.480000e+00	-7.012020e-04	

CPU time since last call: 0.020 seconds.

Total CPU time: 0.020 seconds.

Current dynamic memory usage = 270336,
Dynamic memory limit = -9547777.

