 ****** HSPICE -- G-2012.06 32-BIT (May 27 2012) RHEL32 ******                  
  Copyright (C) 2012 Synopsys, Inc. All Rights Reserved.                        
  Unpublished-rights reserved under US copyright laws.
  This program is protected by law and is subject to the
  terms and conditions of the license agreement from Synopsys.
  Use of this program is your acceptance to be bound by the
  license agreement. HSPICE is the trademark of Synopsys, Inc.
  Input File: test1.sp                                                          
  Command line options: -hdlpath ../code -i test1.sp -o test1
 lic:  
 lic: FLEXlm: v10.8 
 lic: USER:   navidp               HOSTNAME: bwrcrdsl-2.EECS.Berkeley.EDU 
 lic: HOSTID:                      PID:      26493 
 lic: Using FLEXlm license file: 
 lic: 1701@sunv40z-1.eecs.berkeley.edu 
 lic: Checkout 1 hspice 
 lic: License/Maintenance for hspice will expire on 19-dec-2013/2013.03 
 lic: 1(in_use)/50(total) FLOATING license(s) on SERVER sunv40z-1.eecs.berkeley.
 lic:   
 Init: read install configuration file: /tools/synopsys/hspice/G-2012.06/hspice/meta.cfg
 Loading pVA library test1.pvadir/pvaRTL_linux.so...
1****** HSPICE -- G-2012.06 32-BIT (May 27 2012) RHEL32 ******                  
 ******  
 *id-vd characteristics for nmos -- tanvir morshed 2010

  ******  circuit name directory
 circuit number to circuit name directory
   number circuitname                     definition         multiplier
        0 main circuit
        1 x1.                             bsimsoi(va)        1.00 
 **info** *pvaI* Creating Verilog-A module 'bsimsoi' for X1

  
      
 *****************************************************************
 ******  option summary
 ******
 runlvl  = 3         bypass  = 2         
  Opening plot unit= 15
 file=test1.pa0                                                                

 ******  
 *id-vd characteristics for nmos -- tanvir morshed 2010

  ******  dc transfer curves tnom=  25.000 temp=  25.000 *****

   *** source        0:vg =    0.2000        ***

x

        volt    current    
                   x1.d    
    0.         -4.346e-18  
  1.0000e-02    9.475e-12  
  2.0000e-02    1.750e-11  
  3.0000e-02    2.404e-11  
  4.0000e-02    2.920e-11  
  5.0000e-02    3.325e-11  
  6.0000e-02    3.651e-11  
  7.0000e-02    3.925e-11  
  8.0000e-02    4.169e-11  
  9.0000e-02    4.400e-11  
    0.10000     4.621e-11  
    0.11000     4.839e-11  
    0.12000     5.063e-11  
    0.13000     5.292e-11  
    0.14000     5.525e-11  
    0.15000     5.761e-11  
    0.16000     6.006e-11  
    0.17000     6.261e-11  
    0.18000     6.523e-11  
    0.19000     6.793e-11  
    0.20000     7.077e-11  
    0.21000     7.361e-11  
    0.22000     7.660e-11  
    0.23000     7.969e-11  
    0.24000     8.293e-11  
    0.25000     8.626e-11  
    0.26000     8.981e-11  
    0.27000     9.328e-11  
    0.28000     9.703e-11  
    0.29000     1.007e-10  
    0.30000     1.046e-10  
    0.31000     1.087e-10  
    0.32000     1.128e-10  
    0.33000     1.173e-10  
    0.34000     1.217e-10  
    0.35000     1.263e-10  
    0.36000     1.310e-10  
    0.37000     1.360e-10  
    0.38000     1.409e-10  
    0.39000     1.462e-10  
    0.40000     1.515e-10  
    0.41000     1.569e-10  
    0.42000     1.626e-10  
    0.43000     1.685e-10  
    0.44000     1.745e-10  
    0.45000     1.807e-10  
    0.46000     1.870e-10  
    0.47000     1.936e-10  
    0.48000     2.002e-10  
    0.49000     2.073e-10  
    0.50000     2.142e-10  
    0.51000     2.216e-10  
    0.52000     2.290e-10  
    0.53000     2.367e-10  
    0.54000     2.445e-10  
    0.55000     2.526e-10  
    0.56000     2.609e-10  
    0.57000     2.694e-10  
    0.58000     2.782e-10  
    0.59000     2.871e-10  
    0.60000     2.962e-10  
    0.61000     3.056e-10  
    0.62000     3.151e-10  
    0.63000     3.249e-10  
    0.64000     3.350e-10  
    0.65000     3.456e-10  
    0.66000     3.560e-10  
    0.67000     3.668e-10  
    0.68000     3.779e-10  
    0.69000     3.892e-10  
    0.70000     4.007e-10  
    0.71000     4.123e-10  
    0.72000     4.245e-10  
    0.73000     4.368e-10  
    0.74000     4.491e-10  
    0.75000     4.619e-10  
    0.76000     4.753e-10  
    0.77000     4.886e-10  
    0.78000     5.023e-10  
    0.79000     5.163e-10  
    0.80000     5.302e-10  
    0.81000     5.444e-10  
    0.82000     5.593e-10  
    0.83000     5.747e-10  
    0.84000     5.900e-10  
    0.85000     6.053e-10  
    0.86000     6.213e-10  
    0.87000     6.374e-10  
    0.88000     6.538e-10  
    0.89000     6.705e-10  
    0.90000     6.877e-10  
    0.91000     7.052e-10  
    0.92000     7.225e-10  
    0.93000     7.404e-10  
    0.94000     7.587e-10  
    0.95000     7.773e-10  
    0.96000     7.961e-10  
    0.97000     8.152e-10  
    0.98000     8.347e-10  
    0.99000     8.547e-10  
    1.00000     8.745e-10  
    1.01000     8.951e-10  
    1.02000     9.157e-10  
    1.03000     9.370e-10  
    1.04000     9.579e-10  
    1.05000     9.793e-10  
    1.06000     1.002e-09  
    1.07000     1.024e-09  
    1.08000     1.046e-09  
    1.09000     1.069e-09  
    1.10000     1.093e-09  
    1.11000     1.116e-09  
    1.12000     1.140e-09  
    1.13000     1.164e-09  
    1.14000     1.189e-09  
    1.15000     1.213e-09  
    1.16000     1.239e-09  
    1.17000     1.265e-09  
    1.18000     1.290e-09  
    1.19000     1.316e-09  
    1.20000     1.343e-09  
y
-----------------------------------------------
 ******  
 *id-vd characteristics for nmos -- tanvir morshed 2010

  ******  dc transfer curves tnom=  25.000 temp=  25.000 *****

   *** source        0:vg =    0.3000        ***

x

        volt    current    
                   x1.d    
    0.         -9.661e-18  
  1.0000e-02    1.182e-10  
  2.0000e-02    2.178e-10  
  3.0000e-02    2.985e-10  
  4.0000e-02    3.619e-10  
  5.0000e-02    4.112e-10  
  6.0000e-02    4.504e-10  
  7.0000e-02    4.833e-10  
  8.0000e-02    5.124e-10  
  9.0000e-02    5.395e-10  
    0.10000     5.656e-10  
    0.11000     5.914e-10  
    0.12000     6.174e-10  
    0.13000     6.437e-10  
    0.14000     6.705e-10  
    0.15000     6.981e-10  
    0.16000     7.264e-10  
    0.17000     7.555e-10  
    0.18000     7.857e-10  
    0.19000     8.167e-10  
    0.20000     8.488e-10  
    0.21000     8.818e-10  
    0.22000     9.160e-10  
    0.23000     9.513e-10  
    0.24000     9.876e-10  
    0.25000     1.025e-09  
    0.26000     1.064e-09  
    0.27000     1.104e-09  
    0.28000     1.145e-09  
    0.29000     1.188e-09  
    0.30000     1.232e-09  
    0.31000     1.277e-09  
    0.32000     1.323e-09  
    0.33000     1.371e-09  
    0.34000     1.421e-09  
    0.35000     1.472e-09  
    0.36000     1.524e-09  
    0.37000     1.577e-09  
    0.38000     1.633e-09  
    0.39000     1.690e-09  
    0.40000     1.748e-09  
    0.41000     1.808e-09  
    0.42000     1.870e-09  
    0.43000     1.933e-09  
    0.44000     1.998e-09  
    0.45000     2.065e-09  
    0.46000     2.134e-09  
    0.47000     2.204e-09  
    0.48000     2.276e-09  
    0.49000     2.350e-09  
    0.50000     2.426e-09  
    0.51000     2.504e-09  
    0.52000     2.584e-09  
    0.53000     2.665e-09  
    0.54000     2.749e-09  
    0.55000     2.834e-09  
    0.56000     2.922e-09  
    0.57000     3.011e-09  
    0.58000     3.103e-09  
    0.59000     3.197e-09  
    0.60000     3.293e-09  
    0.61000     3.391e-09  
    0.62000     3.492e-09  
    0.63000     3.594e-09  
    0.64000     3.699e-09  
    0.65000     3.806e-09  
    0.66000     3.915e-09  
    0.67000     4.026e-09  
    0.68000     4.140e-09  
    0.69000     4.256e-09  
    0.70000     4.375e-09  
    0.71000     4.496e-09  
    0.72000     4.619e-09  
    0.73000     4.744e-09  
    0.74000     4.872e-09  
    0.75000     5.003e-09  
    0.76000     5.135e-09  
    0.77000     5.271e-09  
    0.78000     5.408e-09  
    0.79000     5.549e-09  
    0.80000     5.691e-09  
    0.81000     5.837e-09  
    0.82000     5.985e-09  
    0.83000     6.135e-09  
    0.84000     6.288e-09  
    0.85000     6.443e-09  
    0.86000     6.602e-09  
    0.87000     6.762e-09  
    0.88000     6.925e-09  
    0.89000     7.091e-09  
    0.90000     7.260e-09  
    0.91000     7.431e-09  
    0.92000     7.604e-09  
    0.93000     7.781e-09  
    0.94000     7.960e-09  
    0.95000     8.141e-09  
    0.96000     8.326e-09  
    0.97000     8.513e-09  
    0.98000     8.702e-09  
    0.99000     8.895e-09  
    1.00000     9.090e-09  
    1.01000     9.287e-09  
    1.02000     9.488e-09  
    1.03000     9.690e-09  
    1.04000     9.897e-09  
    1.05000     1.011e-08  
    1.06000     1.032e-08  
    1.07000     1.053e-08  
    1.08000     1.075e-08  
    1.09000     1.097e-08  
    1.10000     1.119e-08  
    1.11000     1.141e-08  
    1.12000     1.164e-08  
    1.13000     1.187e-08  
    1.14000     1.210e-08  
    1.15000     1.234e-08  
    1.16000     1.258e-08  
    1.17000     1.282e-08  
    1.18000     1.306e-08  
    1.19000     1.331e-08  
    1.20000     1.356e-08  
y
-----------------------------------------------
 ******  
 *id-vd characteristics for nmos -- tanvir morshed 2010

  ******  dc transfer curves tnom=  25.000 temp=  25.000 *****

   *** source        0:vg =    0.4000        ***

x

        volt    current    
                   x1.d    
    0.         -1.878e-17  
  1.0000e-02    1.396e-09  
  2.0000e-02    2.566e-09  
  3.0000e-02    3.509e-09  
  4.0000e-02    4.243e-09  
  5.0000e-02    4.809e-09  
  6.0000e-02    5.255e-09  
  7.0000e-02    5.624e-09  
  8.0000e-02    5.948e-09  
  9.0000e-02    6.247e-09  
    0.10000     6.533e-09  
    0.11000     6.814e-09  
    0.12000     7.095e-09  
    0.13000     7.378e-09  
    0.14000     7.667e-09  
    0.15000     7.962e-09  
    0.16000     8.264e-09  
    0.17000     8.574e-09  
    0.18000     8.893e-09  
    0.19000     9.221e-09  
    0.20000     9.558e-09  
    0.21000     9.906e-09  
    0.22000     1.026e-08  
    0.23000     1.063e-08  
    0.24000     1.101e-08  
    0.25000     1.140e-08  
    0.26000     1.180e-08  
    0.27000     1.221e-08  
    0.28000     1.264e-08  
    0.29000     1.307e-08  
    0.30000     1.352e-08  
    0.31000     1.398e-08  
    0.32000     1.446e-08  
    0.33000     1.494e-08  
    0.34000     1.544e-08  
    0.35000     1.595e-08  
    0.36000     1.648e-08  
    0.37000     1.702e-08  
    0.38000     1.757e-08  
    0.39000     1.814e-08  
    0.40000     1.872e-08  
    0.41000     1.931e-08  
    0.42000     1.992e-08  
    0.43000     2.055e-08  
    0.44000     2.119e-08  
    0.45000     2.184e-08  
    0.46000     2.251e-08  
    0.47000     2.320e-08  
    0.48000     2.390e-08  
    0.49000     2.462e-08  
    0.50000     2.535e-08  
    0.51000     2.610e-08  
    0.52000     2.686e-08  
    0.53000     2.765e-08  
    0.54000     2.845e-08  
    0.55000     2.926e-08  
    0.56000     3.009e-08  
    0.57000     3.094e-08  
    0.58000     3.181e-08  
    0.59000     3.270e-08  
    0.60000     3.360e-08  
    0.61000     3.452e-08  
    0.62000     3.546e-08  
    0.63000     3.642e-08  
    0.64000     3.739e-08  
    0.65000     3.839e-08  
    0.66000     3.940e-08  
    0.67000     4.043e-08  
    0.68000     4.148e-08  
    0.69000     4.254e-08  
    0.70000     4.363e-08  
    0.71000     4.474e-08  
    0.72000     4.586e-08  
    0.73000     4.700e-08  
    0.74000     4.817e-08  
    0.75000     4.935e-08  
    0.76000     5.055e-08  
    0.77000     5.177e-08  
    0.78000     5.301e-08  
    0.79000     5.427e-08  
    0.80000     5.555e-08  
    0.81000     5.685e-08  
    0.82000     5.817e-08  
    0.83000     5.951e-08  
    0.84000     6.087e-08  
    0.85000     6.224e-08  
    0.86000     6.364e-08  
    0.87000     6.506e-08  
    0.88000     6.650e-08  
    0.89000     6.796e-08  
    0.90000     6.944e-08  
    0.91000     7.093e-08  
    0.92000     7.245e-08  
    0.93000     7.399e-08  
    0.94000     7.555e-08  
    0.95000     7.713e-08  
    0.96000     7.873e-08  
    0.97000     8.035e-08  
    0.98000     8.199e-08  
    0.99000     8.365e-08  
    1.00000     8.533e-08  
    1.01000     8.704e-08  
    1.02000     8.876e-08  
    1.03000     9.051e-08  
    1.04000     9.227e-08  
    1.05000     9.406e-08  
    1.06000     9.587e-08  
    1.07000     9.770e-08  
    1.08000     9.955e-08  
    1.09000     1.014e-07  
    1.10000     1.033e-07  
    1.11000     1.052e-07  
    1.12000     1.072e-07  
    1.13000     1.091e-07  
    1.14000     1.111e-07  
    1.15000     1.131e-07  
    1.16000     1.152e-07  
    1.17000     1.172e-07  
    1.18000     1.193e-07  
    1.19000     1.214e-07  
    1.20000     1.235e-07  
y
-----------------------------------------------
 ******  
 *id-vd characteristics for nmos -- tanvir morshed 2010

  ******  dc transfer curves tnom=  25.000 temp=  25.000 *****

   *** source        0:vg =    0.5000        ***

x

        volt    current    
                   x1.d    
    0.         -3.416e-17  
  1.0000e-02    1.440e-08  
  2.0000e-02    2.643e-08  
  3.0000e-02    3.611e-08  
  4.0000e-02    4.364e-08  
  5.0000e-02    4.940e-08  
  6.0000e-02    5.389e-08  
  7.0000e-02    5.754e-08  
  8.0000e-02    6.069e-08  
  9.0000e-02    6.355e-08  
    0.10000     6.625e-08  
    0.11000     6.887e-08  
    0.12000     7.148e-08  
    0.13000     7.409e-08  
    0.14000     7.673e-08  
    0.15000     7.941e-08  
    0.16000     8.214e-08  
    0.17000     8.494e-08  
    0.18000     8.780e-08  
    0.19000     9.073e-08  
    0.20000     9.374e-08  
    0.21000     9.682e-08  
    0.22000     9.997e-08  
    0.23000     1.032e-07  
    0.24000     1.065e-07  
    0.25000     1.099e-07  
    0.26000     1.134e-07  
    0.27000     1.170e-07  
    0.28000     1.207e-07  
    0.29000     1.244e-07  
    0.30000     1.283e-07  
    0.31000     1.322e-07  
    0.32000     1.362e-07  
    0.33000     1.403e-07  
    0.34000     1.446e-07  
    0.35000     1.489e-07  
    0.36000     1.533e-07  
    0.37000     1.578e-07  
    0.38000     1.624e-07  
    0.39000     1.671e-07  
    0.40000     1.719e-07  
    0.41000     1.768e-07  
    0.42000     1.818e-07  
    0.43000     1.869e-07  
    0.44000     1.922e-07  
    0.45000     1.975e-07  
    0.46000     2.029e-07  
    0.47000     2.085e-07  
    0.48000     2.141e-07  
    0.49000     2.199e-07  
    0.50000     2.258e-07  
    0.51000     2.318e-07  
    0.52000     2.379e-07  
    0.53000     2.441e-07  
    0.54000     2.504e-07  
    0.55000     2.568e-07  
    0.56000     2.634e-07  
    0.57000     2.701e-07  
    0.58000     2.768e-07  
    0.59000     2.837e-07  
    0.60000     2.908e-07  
    0.61000     2.979e-07  
    0.62000     3.052e-07  
    0.63000     3.125e-07  
    0.64000     3.200e-07  
    0.65000     3.277e-07  
    0.66000     3.354e-07  
    0.67000     3.433e-07  
    0.68000     3.512e-07  
    0.69000     3.594e-07  
    0.70000     3.676e-07  
    0.71000     3.759e-07  
    0.72000     3.844e-07  
    0.73000     3.930e-07  
    0.74000     4.017e-07  
    0.75000     4.106e-07  
    0.76000     4.195e-07  
    0.77000     4.286e-07  
    0.78000     4.379e-07  
    0.79000     4.472e-07  
    0.80000     4.567e-07  
    0.81000     4.663e-07  
    0.82000     4.760e-07  
    0.83000     4.859e-07  
    0.84000     4.958e-07  
    0.85000     5.060e-07  
    0.86000     5.162e-07  
    0.87000     5.266e-07  
    0.88000     5.371e-07  
    0.89000     5.477e-07  
    0.90000     5.585e-07  
    0.91000     5.694e-07  
    0.92000     5.805e-07  
    0.93000     5.916e-07  
    0.94000     6.030e-07  
    0.95000     6.144e-07  
    0.96000     6.260e-07  
    0.97000     6.378e-07  
    0.98000     6.497e-07  
    0.99000     6.617e-07  
    1.00000     6.740e-07  
    1.01000     6.863e-07  
    1.02000     6.988e-07  
    1.03000     7.115e-07  
    1.04000     7.244e-07  
    1.05000     7.374e-07  
    1.06000     7.506e-07  
    1.07000     7.640e-07  
    1.08000     7.776e-07  
    1.09000     7.914e-07  
    1.10000     8.054e-07  
    1.11000     8.196e-07  
    1.12000     8.340e-07  
    1.13000     8.487e-07  
    1.14000     8.636e-07  
    1.15000     8.787e-07  
    1.16000     8.942e-07  
    1.17000     9.099e-07  
    1.18000     9.259e-07  
    1.19000     9.422e-07  
    1.20000     9.589e-07  
y
-----------------------------------------------
 ******  
 *id-vd characteristics for nmos -- tanvir morshed 2010

  ******  dc transfer curves tnom=  25.000 temp=  25.000 *****

   *** source        0:vg =    0.6000        ***

x

        volt    current    
                   x1.d    
    0.         -6.438e-17  
  1.0000e-02    1.097e-07  
  2.0000e-02    2.040e-07  
  3.0000e-02    2.828e-07  
  4.0000e-02    3.467e-07  
  5.0000e-02    3.975e-07  
  6.0000e-02    4.377e-07  
  7.0000e-02    4.700e-07  
  8.0000e-02    4.970e-07  
  9.0000e-02    5.206e-07  
    0.10000     5.421e-07  
    0.11000     5.625e-07  
    0.12000     5.823e-07  
    0.13000     6.018e-07  
    0.14000     6.213e-07  
    0.15000     6.409e-07  
    0.16000     6.607e-07  
    0.17000     6.808e-07  
    0.18000     7.013e-07  
    0.19000     7.221e-07  
    0.20000     7.434e-07  
    0.21000     7.650e-07  
    0.22000     7.871e-07  
    0.23000     8.097e-07  
    0.24000     8.327e-07  
    0.25000     8.562e-07  
    0.26000     8.802e-07  
    0.27000     9.047e-07  
    0.28000     9.297e-07  
    0.29000     9.551e-07  
    0.30000     9.811e-07  
    0.31000     1.008e-06  
    0.32000     1.035e-06  
    0.33000     1.062e-06  
    0.34000     1.090e-06  
    0.35000     1.118e-06  
    0.36000     1.148e-06  
    0.37000     1.177e-06  
    0.38000     1.207e-06  
    0.39000     1.238e-06  
    0.40000     1.269e-06  
    0.41000     1.301e-06  
    0.42000     1.333e-06  
    0.43000     1.365e-06  
    0.44000     1.399e-06  
    0.45000     1.433e-06  
    0.46000     1.467e-06  
    0.47000     1.502e-06  
    0.48000     1.537e-06  
    0.49000     1.573e-06  
    0.50000     1.610e-06  
    0.51000     1.647e-06  
    0.52000     1.684e-06  
    0.53000     1.723e-06  
    0.54000     1.761e-06  
    0.55000     1.801e-06  
    0.56000     1.840e-06  
    0.57000     1.881e-06  
    0.58000     1.922e-06  
    0.59000     1.963e-06  
    0.60000     2.005e-06  
    0.61000     2.047e-06  
    0.62000     2.091e-06  
    0.63000     2.134e-06  
    0.64000     2.178e-06  
    0.65000     2.223e-06  
    0.66000     2.268e-06  
    0.67000     2.314e-06  
    0.68000     2.361e-06  
    0.69000     2.408e-06  
    0.70000     2.455e-06  
    0.71000     2.503e-06  
    0.72000     2.552e-06  
    0.73000     2.601e-06  
    0.74000     2.651e-06  
    0.75000     2.701e-06  
    0.76000     2.752e-06  
    0.77000     2.804e-06  
    0.78000     2.856e-06  
    0.79000     2.908e-06  
    0.80000     2.962e-06  
    0.81000     3.015e-06  
    0.82000     3.070e-06  
    0.83000     3.125e-06  
    0.84000     3.181e-06  
    0.85000     3.237e-06  
    0.86000     3.294e-06  
    0.87000     3.352e-06  
    0.88000     3.410e-06  
    0.89000     3.469e-06  
    0.90000     3.529e-06  
    0.91000     3.590e-06  
    0.92000     3.651e-06  
    0.93000     3.714e-06  
    0.94000     3.777e-06  
    0.95000     3.840e-06  
    0.96000     3.905e-06  
    0.97000     3.971e-06  
    0.98000     4.037e-06  
    0.99000     4.105e-06  
    1.00000     4.174e-06  
    1.01000     4.244e-06  
    1.02000     4.314e-06  
    1.03000     4.387e-06  
    1.04000     4.460e-06  
    1.05000     4.535e-06  
    1.06000     4.611e-06  
    1.07000     4.688e-06  
    1.08000     4.767e-06  
    1.09000     4.848e-06  
    1.10000     4.931e-06  
    1.11000     5.015e-06  
    1.12000     5.101e-06  
    1.13000     5.189e-06  
    1.14000     5.279e-06  
    1.15000     5.371e-06  
    1.16000     5.466e-06  
    1.17000     5.563e-06  
    1.18000     5.662e-06  
    1.19000     5.764e-06  
    1.20000     5.869e-06  
y
-----------------------------------------------
 ******  
 *id-vd characteristics for nmos -- tanvir morshed 2010

  ******  dc transfer curves tnom=  25.000 temp=  25.000 *****

   *** source        0:vg =    0.7000        ***

x

        volt    current    
                   x1.d    
    0.         -1.575e-16  
  1.0000e-02    5.051e-07  
  2.0000e-02    9.675e-07  
  3.0000e-02    1.386e-06  
  4.0000e-02    1.761e-06  
  5.0000e-02    2.091e-06  
  6.0000e-02    2.380e-06  
  7.0000e-02    2.629e-06  
  8.0000e-02    2.843e-06  
  9.0000e-02    3.026e-06  
    0.10000     3.185e-06  
    0.11000     3.325e-06  
    0.12000     3.451e-06  
    0.13000     3.568e-06  
    0.14000     3.679e-06  
    0.15000     3.785e-06  
    0.16000     3.889e-06  
    0.17000     3.992e-06  
    0.18000     4.094e-06  
    0.19000     4.196e-06  
    0.20000     4.298e-06  
    0.21000     4.401e-06  
    0.22000     4.505e-06  
    0.23000     4.610e-06  
    0.24000     4.716e-06  
    0.25000     4.823e-06  
    0.26000     4.931e-06  
    0.27000     5.041e-06  
    0.28000     5.151e-06  
    0.29000     5.263e-06  
    0.30000     5.376e-06  
    0.31000     5.491e-06  
    0.32000     5.607e-06  
    0.33000     5.724e-06  
    0.34000     5.842e-06  
    0.35000     5.961e-06  
    0.36000     6.082e-06  
    0.37000     6.204e-06  
    0.38000     6.328e-06  
    0.39000     6.452e-06  
    0.40000     6.578e-06  
    0.41000     6.705e-06  
    0.42000     6.833e-06  
    0.43000     6.963e-06  
    0.44000     7.093e-06  
    0.45000     7.225e-06  
    0.46000     7.358e-06  
    0.47000     7.493e-06  
    0.48000     7.628e-06  
    0.49000     7.765e-06  
    0.50000     7.903e-06  
    0.51000     8.042e-06  
    0.52000     8.182e-06  
    0.53000     8.323e-06  
    0.54000     8.466e-06  
    0.55000     8.609e-06  
    0.56000     8.754e-06  
    0.57000     8.900e-06  
    0.58000     9.047e-06  
    0.59000     9.195e-06  
    0.60000     9.344e-06  
    0.61000     9.495e-06  
    0.62000     9.646e-06  
    0.63000     9.799e-06  
    0.64000     9.953e-06  
    0.65000     1.011e-05  
    0.66000     1.026e-05  
    0.67000     1.042e-05  
    0.68000     1.058e-05  
    0.69000     1.074e-05  
    0.70000     1.090e-05  
    0.71000     1.106e-05  
    0.72000     1.123e-05  
    0.73000     1.139e-05  
    0.74000     1.156e-05  
    0.75000     1.172e-05  
    0.76000     1.189e-05  
    0.77000     1.206e-05  
    0.78000     1.223e-05  
    0.79000     1.241e-05  
    0.80000     1.258e-05  
    0.81000     1.276e-05  
    0.82000     1.293e-05  
    0.83000     1.311e-05  
    0.84000     1.329e-05  
    0.85000     1.348e-05  
    0.86000     1.366e-05  
    0.87000     1.385e-05  
    0.88000     1.404e-05  
    0.89000     1.423e-05  
    0.90000     1.442e-05  
    0.91000     1.461e-05  
    0.92000     1.481e-05  
    0.93000     1.501e-05  
    0.94000     1.521e-05  
    0.95000     1.542e-05  
    0.96000     1.562e-05  
    0.97000     1.584e-05  
    0.98000     1.605e-05  
    0.99000     1.627e-05  
    1.00000     1.649e-05  
    1.01000     1.671e-05  
    1.02000     1.694e-05  
    1.03000     1.717e-05  
    1.04000     1.740e-05  
    1.05000     1.764e-05  
    1.06000     1.788e-05  
    1.07000     1.813e-05  
    1.08000     1.838e-05  
    1.09000     1.864e-05  
    1.10000     1.890e-05  
    1.11000     1.916e-05  
    1.12000     1.943e-05  
    1.13000     1.971e-05  
    1.14000     1.999e-05  
    1.15000     2.027e-05  
    1.16000     2.056e-05  
    1.17000     2.085e-05  
    1.18000     2.115e-05  
    1.19000     2.146e-05  
    1.20000     2.177e-05  
y
-----------------------------------------------
 ******  
 *id-vd characteristics for nmos -- tanvir morshed 2010

  ******  dc transfer curves tnom=  25.000 temp=  25.000 *****

   *** source        0:vg =    0.8000        ***

x

        volt    current    
                   x1.d    
    0.         -5.578e-16  
  1.0000e-02    1.325e-06  
  2.0000e-02    2.587e-06  
  3.0000e-02    3.782e-06  
  4.0000e-02    4.910e-06  
  5.0000e-02    5.969e-06  
  6.0000e-02    6.959e-06  
  7.0000e-02    7.880e-06  
  8.0000e-02    8.733e-06  
  9.0000e-02    9.520e-06  
    0.10000     1.024e-05  
    0.11000     1.090e-05  
    0.12000     1.150e-05  
    0.13000     1.205e-05  
    0.14000     1.255e-05  
    0.15000     1.300e-05  
    0.16000     1.342e-05  
    0.17000     1.380e-05  
    0.18000     1.416e-05  
    0.19000     1.450e-05  
    0.20000     1.481e-05  
    0.21000     1.512e-05  
    0.22000     1.542e-05  
    0.23000     1.571e-05  
    0.24000     1.599e-05  
    0.25000     1.628e-05  
    0.26000     1.656e-05  
    0.27000     1.684e-05  
    0.28000     1.711e-05  
    0.29000     1.739e-05  
    0.30000     1.767e-05  
    0.31000     1.795e-05  
    0.32000     1.822e-05  
    0.33000     1.850e-05  
    0.34000     1.878e-05  
    0.35000     1.906e-05  
    0.36000     1.934e-05  
    0.37000     1.962e-05  
    0.38000     1.990e-05  
    0.39000     2.019e-05  
    0.40000     2.047e-05  
    0.41000     2.076e-05  
    0.42000     2.104e-05  
    0.43000     2.133e-05  
    0.44000     2.162e-05  
    0.45000     2.191e-05  
    0.46000     2.220e-05  
    0.47000     2.249e-05  
    0.48000     2.278e-05  
    0.49000     2.307e-05  
    0.50000     2.336e-05  
    0.51000     2.366e-05  
    0.52000     2.396e-05  
    0.53000     2.425e-05  
    0.54000     2.455e-05  
    0.55000     2.485e-05  
    0.56000     2.515e-05  
    0.57000     2.545e-05  
    0.58000     2.575e-05  
    0.59000     2.606e-05  
    0.60000     2.636e-05  
    0.61000     2.667e-05  
    0.62000     2.697e-05  
    0.63000     2.728e-05  
    0.64000     2.759e-05  
    0.65000     2.790e-05  
    0.66000     2.821e-05  
    0.67000     2.853e-05  
    0.68000     2.884e-05  
    0.69000     2.916e-05  
    0.70000     2.947e-05  
    0.71000     2.979e-05  
    0.72000     3.011e-05  
    0.73000     3.043e-05  
    0.74000     3.076e-05  
    0.75000     3.108e-05  
    0.76000     3.141e-05  
    0.77000     3.174e-05  
    0.78000     3.207e-05  
    0.79000     3.240e-05  
    0.80000     3.274e-05  
    0.81000     3.308e-05  
    0.82000     3.342e-05  
    0.83000     3.376e-05  
    0.84000     3.410e-05  
    0.85000     3.445e-05  
    0.86000     3.480e-05  
    0.87000     3.516e-05  
    0.88000     3.551e-05  
    0.89000     3.587e-05  
    0.90000     3.624e-05  
    0.91000     3.660e-05  
    0.92000     3.697e-05  
    0.93000     3.735e-05  
    0.94000     3.773e-05  
    0.95000     3.811e-05  
    0.96000     3.849e-05  
    0.97000     3.888e-05  
    0.98000     3.928e-05  
    0.99000     3.968e-05  
    1.00000     4.008e-05  
    1.01000     4.049e-05  
    1.02000     4.090e-05  
    1.03000     4.132e-05  
    1.04000     4.175e-05  
    1.05000     4.218e-05  
    1.06000     4.261e-05  
    1.07000     4.305e-05  
    1.08000     4.350e-05  
    1.09000     4.395e-05  
    1.10000     4.440e-05  
    1.11000     4.486e-05  
    1.12000     4.533e-05  
    1.13000     4.580e-05  
    1.14000     4.628e-05  
    1.15000     4.677e-05  
    1.16000     4.726e-05  
    1.17000     4.775e-05  
    1.18000     4.825e-05  
    1.19000     4.876e-05  
    1.20000     4.927e-05  
y
-----------------------------------------------
 ******  
 *id-vd characteristics for nmos -- tanvir morshed 2010

  ******  dc transfer curves tnom=  25.000 temp=  25.000 *****

   *** source        0:vg =    0.9000        ***

x

        volt    current    
                   x1.d    
    0.         -2.372e-15  
  1.0000e-02    2.391e-06  
  2.0000e-02    4.704e-06  
  3.0000e-02    6.933e-06  
  4.0000e-02    9.076e-06  
  5.0000e-02    1.113e-05  
  6.0000e-02    1.309e-05  
  7.0000e-02    1.496e-05  
  8.0000e-02    1.674e-05  
  9.0000e-02    1.843e-05  
    0.10000     2.003e-05  
    0.11000     2.155e-05  
    0.12000     2.297e-05  
    0.13000     2.432e-05  
    0.14000     2.559e-05  
    0.15000     2.678e-05  
    0.16000     2.790e-05  
    0.17000     2.894e-05  
    0.18000     2.992e-05  
    0.19000     3.083e-05  
    0.20000     3.168e-05  
    0.21000     3.248e-05  
    0.22000     3.322e-05  
    0.23000     3.392e-05  
    0.24000     3.458e-05  
    0.25000     3.520e-05  
    0.26000     3.578e-05  
    0.27000     3.635e-05  
    0.28000     3.689e-05  
    0.29000     3.741e-05  
    0.30000     3.792e-05  
    0.31000     3.842e-05  
    0.32000     3.890e-05  
    0.33000     3.938e-05  
    0.34000     3.986e-05  
    0.35000     4.033e-05  
    0.36000     4.080e-05  
    0.37000     4.126e-05  
    0.38000     4.172e-05  
    0.39000     4.218e-05  
    0.40000     4.264e-05  
    0.41000     4.310e-05  
    0.42000     4.355e-05  
    0.43000     4.401e-05  
    0.44000     4.446e-05  
    0.45000     4.492e-05  
    0.46000     4.537e-05  
    0.47000     4.583e-05  
    0.48000     4.628e-05  
    0.49000     4.674e-05  
    0.50000     4.719e-05  
    0.51000     4.764e-05  
    0.52000     4.810e-05  
    0.53000     4.855e-05  
    0.54000     4.901e-05  
    0.55000     4.946e-05  
    0.56000     4.992e-05  
    0.57000     5.037e-05  
    0.58000     5.083e-05  
    0.59000     5.129e-05  
    0.60000     5.174e-05  
    0.61000     5.220e-05  
    0.62000     5.266e-05  
    0.63000     5.312e-05  
    0.64000     5.358e-05  
    0.65000     5.404e-05  
    0.66000     5.450e-05  
    0.67000     5.496e-05  
    0.68000     5.543e-05  
    0.69000     5.589e-05  
    0.70000     5.636e-05  
    0.71000     5.682e-05  
    0.72000     5.729e-05  
    0.73000     5.776e-05  
    0.74000     5.824e-05  
    0.75000     5.871e-05  
    0.76000     5.918e-05  
    0.77000     5.966e-05  
    0.78000     6.014e-05  
    0.79000     6.062e-05  
    0.80000     6.111e-05  
    0.81000     6.159e-05  
    0.82000     6.208e-05  
    0.83000     6.257e-05  
    0.84000     6.307e-05  
    0.85000     6.356e-05  
    0.86000     6.406e-05  
    0.87000     6.457e-05  
    0.88000     6.507e-05  
    0.89000     6.558e-05  
    0.90000     6.610e-05  
    0.91000     6.662e-05  
    0.92000     6.714e-05  
    0.93000     6.766e-05  
    0.94000     6.819e-05  
    0.95000     6.873e-05  
    0.96000     6.927e-05  
    0.97000     6.981e-05  
    0.98000     7.036e-05  
    0.99000     7.091e-05  
    1.00000     7.147e-05  
    1.01000     7.204e-05  
    1.02000     7.261e-05  
    1.03000     7.318e-05  
    1.04000     7.376e-05  
    1.05000     7.434e-05  
    1.06000     7.493e-05  
    1.07000     7.553e-05  
    1.08000     7.613e-05  
    1.09000     7.674e-05  
    1.10000     7.735e-05  
    1.11000     7.797e-05  
    1.12000     7.859e-05  
    1.13000     7.922e-05  
    1.14000     7.985e-05  
    1.15000     8.049e-05  
    1.16000     8.113e-05  
    1.17000     8.178e-05  
    1.18000     8.244e-05  
    1.19000     8.310e-05  
    1.20000     8.376e-05  
y
-----------------------------------------------
 ******  
 *id-vd characteristics for nmos -- tanvir morshed 2010

  ******  dc transfer curves tnom=  25.000 temp=  25.000 *****

   *** source        0:vg =    1.0000        ***

x

        volt    current    
                   x1.d    
    0.         -1.026e-14  
  1.0000e-02    3.511e-06  
  2.0000e-02    6.934e-06  
  3.0000e-02    1.026e-05  
  4.0000e-02    1.349e-05  
  5.0000e-02    1.662e-05  
  6.0000e-02    1.964e-05  
  7.0000e-02    2.256e-05  
  8.0000e-02    2.537e-05  
  9.0000e-02    2.807e-05  
    0.10000     3.066e-05  
    0.11000     3.315e-05  
    0.12000     3.553e-05  
    0.13000     3.780e-05  
    0.14000     3.998e-05  
    0.15000     4.206e-05  
    0.16000     4.404e-05  
    0.17000     4.592e-05  
    0.18000     4.771e-05  
    0.19000     4.941e-05  
    0.20000     5.103e-05  
    0.21000     5.256e-05  
    0.22000     5.401e-05  
    0.23000     5.538e-05  
    0.24000     5.667e-05  
    0.25000     5.789e-05  
    0.26000     5.904e-05  
    0.27000     6.013e-05  
    0.28000     6.116e-05  
    0.29000     6.212e-05  
    0.30000     6.304e-05  
    0.31000     6.391e-05  
    0.32000     6.474e-05  
    0.33000     6.553e-05  
    0.34000     6.629e-05  
    0.35000     6.702e-05  
    0.36000     6.772e-05  
    0.37000     6.841e-05  
    0.38000     6.908e-05  
    0.39000     6.974e-05  
    0.40000     7.038e-05  
    0.41000     7.102e-05  
    0.42000     7.165e-05  
    0.43000     7.227e-05  
    0.44000     7.289e-05  
    0.45000     7.350e-05  
    0.46000     7.412e-05  
    0.47000     7.472e-05  
    0.48000     7.533e-05  
    0.49000     7.593e-05  
    0.50000     7.653e-05  
    0.51000     7.713e-05  
    0.52000     7.773e-05  
    0.53000     7.833e-05  
    0.54000     7.893e-05  
    0.55000     7.953e-05  
    0.56000     8.012e-05  
    0.57000     8.072e-05  
    0.58000     8.131e-05  
    0.59000     8.191e-05  
    0.60000     8.250e-05  
    0.61000     8.310e-05  
    0.62000     8.369e-05  
    0.63000     8.429e-05  
    0.64000     8.488e-05  
    0.65000     8.548e-05  
    0.66000     8.607e-05  
    0.67000     8.667e-05  
    0.68000     8.727e-05  
    0.69000     8.786e-05  
    0.70000     8.846e-05  
    0.71000     8.906e-05  
    0.72000     8.966e-05  
    0.73000     9.026e-05  
    0.74000     9.086e-05  
    0.75000     9.147e-05  
    0.76000     9.207e-05  
    0.77000     9.268e-05  
    0.78000     9.328e-05  
    0.79000     9.389e-05  
    0.80000     9.451e-05  
    0.81000     9.512e-05  
    0.82000     9.574e-05  
    0.83000     9.635e-05  
    0.84000     9.698e-05  
    0.85000     9.760e-05  
    0.86000     9.823e-05  
    0.87000     9.886e-05  
    0.88000     9.949e-05  
    0.89000     1.001e-04  
    0.90000     1.008e-04  
    0.91000     1.014e-04  
    0.92000     1.021e-04  
    0.93000     1.027e-04  
    0.94000     1.034e-04  
    0.95000     1.040e-04  
    0.96000     1.047e-04  
    0.97000     1.054e-04  
    0.98000     1.060e-04  
    0.99000     1.067e-04  
    1.00000     1.074e-04  
    1.01000     1.081e-04  
    1.02000     1.088e-04  
    1.03000     1.095e-04  
    1.04000     1.102e-04  
    1.05000     1.109e-04  
    1.06000     1.116e-04  
    1.07000     1.123e-04  
    1.08000     1.131e-04  
    1.09000     1.138e-04  
    1.10000     1.145e-04  
    1.11000     1.153e-04  
    1.12000     1.160e-04  
    1.13000     1.168e-04  
    1.14000     1.175e-04  
    1.15000     1.183e-04  
    1.16000     1.191e-04  
    1.17000     1.198e-04  
    1.18000     1.206e-04  
    1.19000     1.214e-04  
    1.20000     1.222e-04  
y
-----------------------------------------------
 ******  
 *id-vd characteristics for nmos -- tanvir morshed 2010

  ******  dc transfer curves tnom=  25.000 temp=  25.000 *****

   *** source        0:vg =    1.1000        ***

x

        volt    current    
                   x1.d    
    0.         -4.301e-14  
  1.0000e-02    4.564e-06  
  2.0000e-02    9.036e-06  
  3.0000e-02    1.341e-05  
  4.0000e-02    1.768e-05  
  5.0000e-02    2.184e-05  
  6.0000e-02    2.589e-05  
  7.0000e-02    2.983e-05  
  8.0000e-02    3.365e-05  
  9.0000e-02    3.735e-05  
    0.10000     4.094e-05  
    0.11000     4.442e-05  
    0.12000     4.778e-05  
    0.13000     5.103e-05  
    0.14000     5.417e-05  
    0.15000     5.719e-05  
    0.16000     6.011e-05  
    0.17000     6.292e-05  
    0.18000     6.563e-05  
    0.19000     6.823e-05  
    0.20000     7.073e-05  
    0.21000     7.312e-05  
    0.22000     7.542e-05  
    0.23000     7.762e-05  
    0.24000     7.972e-05  
    0.25000     8.173e-05  
    0.26000     8.364e-05  
    0.27000     8.546e-05  
    0.28000     8.720e-05  
    0.29000     8.885e-05  
    0.30000     9.042e-05  
    0.31000     9.190e-05  
    0.32000     9.331e-05  
    0.33000     9.464e-05  
    0.34000     9.591e-05  
    0.35000     9.710e-05  
    0.36000     9.824e-05  
    0.37000     9.931e-05  
    0.38000     1.003e-04  
    0.39000     1.013e-04  
    0.40000     1.022e-04  
    0.41000     1.031e-04  
    0.42000     1.040e-04  
    0.43000     1.048e-04  
    0.44000     1.056e-04  
    0.45000     1.064e-04  
    0.46000     1.072e-04  
    0.47000     1.079e-04  
    0.48000     1.087e-04  
    0.49000     1.094e-04  
    0.50000     1.101e-04  
    0.51000     1.108e-04  
    0.52000     1.115e-04  
    0.53000     1.122e-04  
    0.54000     1.129e-04  
    0.55000     1.136e-04  
    0.56000     1.143e-04  
    0.57000     1.150e-04  
    0.58000     1.157e-04  
    0.59000     1.164e-04  
    0.60000     1.171e-04  
    0.61000     1.178e-04  
    0.62000     1.185e-04  
    0.63000     1.192e-04  
    0.64000     1.199e-04  
    0.65000     1.206e-04  
    0.66000     1.213e-04  
    0.67000     1.220e-04  
    0.68000     1.227e-04  
    0.69000     1.234e-04  
    0.70000     1.241e-04  
    0.71000     1.248e-04  
    0.72000     1.255e-04  
    0.73000     1.262e-04  
    0.74000     1.269e-04  
    0.75000     1.276e-04  
    0.76000     1.283e-04  
    0.77000     1.291e-04  
    0.78000     1.298e-04  
    0.79000     1.305e-04  
    0.80000     1.312e-04  
    0.81000     1.319e-04  
    0.82000     1.326e-04  
    0.83000     1.334e-04  
    0.84000     1.341e-04  
    0.85000     1.348e-04  
    0.86000     1.356e-04  
    0.87000     1.363e-04  
    0.88000     1.370e-04  
    0.89000     1.378e-04  
    0.90000     1.385e-04  
    0.91000     1.393e-04  
    0.92000     1.400e-04  
    0.93000     1.408e-04  
    0.94000     1.415e-04  
    0.95000     1.423e-04  
    0.96000     1.431e-04  
    0.97000     1.438e-04  
    0.98000     1.446e-04  
    0.99000     1.454e-04  
    1.00000     1.462e-04  
    1.01000     1.470e-04  
    1.02000     1.478e-04  
    1.03000     1.486e-04  
    1.04000     1.494e-04  
    1.05000     1.502e-04  
    1.06000     1.510e-04  
    1.07000     1.518e-04  
    1.08000     1.527e-04  
    1.09000     1.535e-04  
    1.10000     1.543e-04  
    1.11000     1.552e-04  
    1.12000     1.560e-04  
    1.13000     1.569e-04  
    1.14000     1.578e-04  
    1.15000     1.586e-04  
    1.16000     1.595e-04  
    1.17000     1.604e-04  
    1.18000     1.612e-04  
    1.19000     1.621e-04  
    1.20000     1.630e-04  
y
-----------------------------------------------
 ******  
 *id-vd characteristics for nmos -- tanvir morshed 2010

  ******  dc transfer curves tnom=  25.000 temp=  25.000 *****

   *** source        0:vg =    1.2000        ***

x

        volt    current    
                   x1.d    
    0.         -1.682e-13  
  1.0000e-02    5.528e-06  
  2.0000e-02    1.096e-05  
  3.0000e-02    1.629e-05  
  4.0000e-02    2.152e-05  
  5.0000e-02    2.663e-05  
  6.0000e-02    3.163e-05  
  7.0000e-02    3.651e-05  
  8.0000e-02    4.127e-05  
  9.0000e-02    4.591e-05  
    0.10000     5.043e-05  
    0.11000     5.484e-05  
    0.12000     5.913e-05  
    0.13000     6.330e-05  
    0.14000     6.735e-05  
    0.15000     7.129e-05  
    0.16000     7.512e-05  
    0.17000     7.884e-05  
    0.18000     8.244e-05  
    0.19000     8.594e-05  
    0.20000     8.932e-05  
    0.21000     9.260e-05  
    0.22000     9.578e-05  
    0.23000     9.884e-05  
    0.24000     1.018e-04  
    0.25000     1.047e-04  
    0.26000     1.074e-04  
    0.27000     1.101e-04  
    0.28000     1.127e-04  
    0.29000     1.151e-04  
    0.30000     1.175e-04  
    0.31000     1.198e-04  
    0.32000     1.219e-04  
    0.33000     1.240e-04  
    0.34000     1.260e-04  
    0.35000     1.279e-04  
    0.36000     1.297e-04  
    0.37000     1.315e-04  
    0.38000     1.331e-04  
    0.39000     1.347e-04  
    0.40000     1.362e-04  
    0.41000     1.376e-04  
    0.42000     1.390e-04  
    0.43000     1.402e-04  
    0.44000     1.414e-04  
    0.45000     1.426e-04  
    0.46000     1.437e-04  
    0.47000     1.448e-04  
    0.48000     1.458e-04  
    0.49000     1.467e-04  
    0.50000     1.477e-04  
    0.51000     1.486e-04  
    0.52000     1.494e-04  
    0.53000     1.503e-04  
    0.54000     1.511e-04  
    0.55000     1.519e-04  
    0.56000     1.527e-04  
    0.57000     1.535e-04  
    0.58000     1.543e-04  
    0.59000     1.550e-04  
    0.60000     1.558e-04  
    0.61000     1.565e-04  
    0.62000     1.573e-04  
    0.63000     1.580e-04  
    0.64000     1.587e-04  
    0.65000     1.595e-04  
    0.66000     1.602e-04  
    0.67000     1.609e-04  
    0.68000     1.617e-04  
    0.69000     1.624e-04  
    0.70000     1.632e-04  
    0.71000     1.639e-04  
    0.72000     1.646e-04  
    0.73000     1.654e-04  
    0.74000     1.661e-04  
    0.75000     1.669e-04  
    0.76000     1.677e-04  
    0.77000     1.684e-04  
    0.78000     1.692e-04  
    0.79000     1.699e-04  
    0.80000     1.707e-04  
    0.81000     1.715e-04  
    0.82000     1.723e-04  
    0.83000     1.731e-04  
    0.84000     1.738e-04  
    0.85000     1.746e-04  
    0.86000     1.754e-04  
    0.87000     1.762e-04  
    0.88000     1.770e-04  
    0.89000     1.778e-04  
    0.90000     1.786e-04  
    0.91000     1.795e-04  
    0.92000     1.803e-04  
    0.93000     1.811e-04  
    0.94000     1.819e-04  
    0.95000     1.828e-04  
    0.96000     1.836e-04  
    0.97000     1.845e-04  
    0.98000     1.853e-04  
    0.99000     1.862e-04  
    1.00000     1.870e-04  
    1.01000     1.879e-04  
    1.02000     1.888e-04  
    1.03000     1.897e-04  
    1.04000     1.906e-04  
    1.05000     1.915e-04  
    1.06000     1.924e-04  
    1.07000     1.933e-04  
    1.08000     1.942e-04  
    1.09000     1.951e-04  
    1.10000     1.960e-04  
    1.11000     1.969e-04  
    1.12000     1.979e-04  
    1.13000     1.988e-04  
    1.14000     1.997e-04  
    1.15000     2.007e-04  
    1.16000     2.017e-04  
    1.17000     2.026e-04  
    1.18000     2.036e-04  
    1.19000     2.046e-04  
    1.20000     2.055e-04  
y
-----------------------------------------------

          ***** job concluded
1****** HSPICE -- G-2012.06 32-BIT (May 27 2012) RHEL32 ******                  
 ******  
 *id-vd characteristics for nmos -- tanvir morshed 2010

  ******  job statistics summary tnom=  25.000 temp=  25.000 *****
  
  
 ******  Machine Information  ******
 CPU:
 model name	: Intel(R) Xeon(R) CPU           E5645  @ 2.40GHz
 cpu MHz	: 1596.000
  
 OS:
 Linux version 2.6.32-358.18.1.el6.x86_64 (mockbuild@x86-003.build.bos.redhat.com) (gcc version 4.4.7 20120313 (Red Hat 4.4.7-3) (GCC) ) #1 SMP Fri Aug 2 17:04:38 EDT 2013


  ******  HSPICE Threads Information  ******

  Command Line Threads Count :     1
  Available CPU Count        :    24
  Actual Threads Count       :     1


  ******  Circuit Statistics  ******
  # nodes       =      16 # elements   =       6
  # resistors   =       0 # capacitors =       0 # inductors   =       0
  # mutual_inds =       0 # vccs       =       0 # vcvs        =       0
  # cccs        =       0 # ccvs       =       0 # volt_srcs   =       5
  # curr_srcs   =       0 # diodes     =       0 # bjts        =       0
  # jfets       =       0 # mosfets    =       0 # U elements  =       0
  # T elements  =       0 # W elements =       0 # B elements  =       0
  # S elements  =       0 # P elements =       0 # va device   =       1
  # vector_srcs =       0 # N elements =       0


  ******  Runtime Statistics (seconds)  ******

  analysis           time    # points   tot. iter  conv.iter
  op point           0.00           1           0
  dc sweep           0.18        1331        2784
  readin             0.06
  errchk             0.04
  setup              0.01
  output             0.00


           peak memory used        110.14 megabytes
           total cpu time            0.29 seconds
           total elapsed time        0.57 seconds
           job started at     12:48:14 11/06/2013
           job ended   at     12:48:14 11/06/2013


 lic: Release hspice token(s) 
 lic: total license checkout elapse time:        0.22(s)
