
Circuit: * 51 stage Ring-Osc.

Circuit: * 51 stage Ring-Osc.
Date: Thu Dec 16 23:37:51  2010


                              * 51 stage Ring-Osc.
                              Transient Analysis  Thu Dec 16 23:37:44  2010
--------------------------------------------------------------------------------
Index   time            v(out25)        v(out50)        
--------------------------------------------------------------------------------
0	0.000000e+00	-6.495450e-18	-1.071931e-07	
1	2.000000e-12	9.828381e-04	8.932709e-04	
2	4.000000e-12	1.966447e-03	1.796929e-03	
3	8.000000e-12	3.933847e-03	3.618888e-03	
4	1.600000e-11	7.868884e-03	7.304780e-03	
5	3.200000e-11	1.574495e-02	1.493661e-02	
6	6.400000e-11	3.155247e-02	3.092607e-02	
7	1.280000e-10	6.372833e-02	6.575967e-02	
8	2.560000e-10	1.524808e-01	1.587755e-01	
9	3.730278e-10	2.732752e-01	2.823237e-01	
10	3.909784e-10	2.928531e-01	3.020890e-01	
11	4.268795e-10	3.294669e-01	3.393569e-01	
12	4.358548e-10	3.376569e-01	3.476629e-01	
13	4.538054e-10	3.533309e-01	3.635773e-01	
14	4.897066e-10	3.816450e-01	3.926815e-01	
15	5.310653e-10	3.723134e-01	4.255771e-01	
16	5.370983e-10	3.597882e-01	4.306682e-01	
17	5.491644e-10	3.193298e-01	4.412501e-01	
18	5.732964e-10	1.734307e-01	4.738627e-01	
19	6.008308e-10	5.335020e-02	6.302699e-01	
20	6.327892e-10	1.325135e-02	8.638790e-01	
21	6.665581e-10	1.108372e-02	9.847339e-01	
22	7.027933e-10	9.336241e-03	1.046207e+00	
23	7.626030e-10	9.338398e-03	1.134677e+00	
24	8.190542e-10	8.089608e-03	1.221324e+00	
25	9.319567e-10	7.842686e-03	1.390591e+00	
26	1.000000e-09	7.127566e-03	1.493756e+00	
27	1.020000e-09	2.636321e-03	1.497790e+00	
28	1.060000e-09	-7.041217e-04	1.500634e+00	
29	1.140000e-09	6.956957e-04	1.499390e+00	
30	1.300000e-09	-2.811874e-04	1.500224e+00	
31	1.500000e-09	4.991468e-04	1.499575e+00	
32	1.700000e-09	-1.482543e-04	1.500133e+00	
33	1.900000e-09	3.794205e-04	1.499678e+00	
34	2.100000e-09	-5.697214e-05	1.500060e+00	
35	2.300000e-09	2.954008e-04	1.499748e+00	
36	2.500000e-09	5.625870e-06	1.500011e+00	
37	2.700000e-09	2.359900e-04	1.499797e+00	
38	2.900000e-09	4.757697e-05	1.499978e+00	
39	3.100000e-09	1.941279e-04	1.499833e+00	
40	3.300000e-09	7.441193e-05	1.499969e+00	
41	3.325000e-09	1.089871e-04	1.499934e+00	
42	3.375000e-09	1.329292e-04	1.499910e+00	
43	3.380253e-09	1.306879e-04	1.499878e+00	
44	3.390759e-09	1.273252e-04	1.499875e+00	
45	3.393386e-09	1.268619e-04	1.499875e+00	
46	3.398639e-09	1.262176e-04	1.499874e+00	
47	3.406772e-09	1.257799e-04	1.499930e+00	
48	3.414878e-09	1.255076e-04	1.499840e+00	
49	3.425364e-09	1.254355e-04	1.499889e+00	
50	3.433832e-09	1.253215e-04	1.499965e+00	
51	3.442875e-09	1.252798e-04	1.499892e+00	
52	3.452187e-09	1.250804e-04	1.499895e+00	
53	3.461892e-09	1.249045e-04	1.499885e+00	
54	3.469664e-09	1.248339e-04	1.499860e+00	

Index   time            v(out25)        v(out50)        
--------------------------------------------------------------------------------
55	3.477432e-09	1.247301e-04	1.499857e+00	
56	3.486596e-09	1.247264e-04	1.499872e+00	
57	3.497529e-09	1.245640e-04	1.499871e+00	
58	3.505158e-09	1.243215e-04	1.499881e+00	
59	3.513516e-09	1.242169e-04	1.499885e+00	
60	3.523564e-09	1.242777e-04	1.499888e+00	
61	3.532021e-09	1.241006e-04	1.499891e+00	
62	3.541366e-09	1.239017e-04	1.499895e+00	
63	3.549905e-09	1.238392e-04	1.499896e+00	
64	3.559919e-09	1.237963e-04	1.499897e+00	
65	3.561478e-09	1.235151e-04	1.499898e+00	
66	3.564597e-09	1.230172e-04	1.499898e+00	
67	3.570836e-09	1.228914e-04	1.499895e+00	
68	3.578055e-09	1.230805e-04	1.499892e+00	
69	3.585899e-09	1.232866e-04	1.499901e+00	
70	3.595166e-09	1.234419e-04	1.499900e+00	
71	3.602440e-09	1.239537e-04	1.499897e+00	
72	3.610423e-09	1.246624e-04	1.499901e+00	
73	3.620707e-09	1.239632e-04	1.499900e+00	
74	3.629897e-09	1.236061e-04	1.499897e+00	
75	3.637564e-09	1.235303e-04	1.499901e+00	
76	3.645763e-09	1.246418e-04	1.499897e+00	
77	3.656078e-09	1.184010e-04	1.499896e+00	
78	3.664426e-09	1.171921e-04	1.499903e+00	
79	3.673467e-09	1.739991e-04	1.499897e+00	
80	3.682652e-09	1.910143e-04	1.499902e+00	
81	3.692326e-09	-2.439896e-04	1.499898e+00	
82	3.694036e-09	-3.025217e-04	1.499896e+00	
83	3.697456e-09	-6.699735e-04	1.499895e+00	
84	3.704296e-09	8.156150e-04	1.499898e+00	
85	3.711404e-09	4.829393e-03	1.499903e+00	
86	3.719594e-09	4.958636e-03	1.499896e+00	
87	3.728049e-09	-2.131321e-02	1.499897e+00	
88	3.735757e-09	-4.197518e-02	1.499893e+00	
89	3.743770e-09	1.349823e-01	1.499907e+00	
90	3.754179e-09	7.861987e-01	1.499903e+00	
91	3.762764e-09	1.199224e+00	1.499902e+00	
92	3.772124e-09	1.379330e+00	1.499901e+00	
93	3.780698e-09	1.427898e+00	1.499899e+00	
94	3.790744e-09	1.453538e+00	1.499898e+00	
95	3.792328e-09	1.459786e+00	1.499899e+00	
96	3.795497e-09	1.472057e+00	1.499899e+00	
97	3.801833e-09	1.484710e+00	1.499898e+00	
98	3.809345e-09	1.487523e+00	1.499898e+00	
99	3.817080e-09	1.490599e+00	1.499896e+00	
100	3.826085e-09	1.496595e+00	1.499896e+00	
101	3.833437e-09	1.497936e+00	1.499904e+00	
102	3.841382e-09	1.498016e+00	1.499899e+00	
103	3.851676e-09	1.499298e+00	1.499900e+00	
104	3.860731e-09	1.499762e+00	1.499902e+00	
105	3.868495e-09	1.499507e+00	1.499900e+00	
106	3.876725e-09	1.499719e+00	1.499900e+00	
107	3.886887e-09	1.499836e+00	1.499897e+00	
108	3.895153e-09	1.499796e+00	1.499901e+00	
109	3.904119e-09	1.499799e+00	1.499900e+00	
110	3.913425e-09	1.499867e+00	1.499900e+00	
111	3.923034e-09	1.499827e+00	1.499897e+00	
112	3.924745e-09	1.499830e+00	1.499898e+00	

Index   time            v(out25)        v(out50)        
--------------------------------------------------------------------------------
113	3.928168e-09	1.499837e+00	1.499898e+00	
114	3.935013e-09	1.499845e+00	1.499900e+00	
115	3.942174e-09	1.499847e+00	1.499902e+00	
116	3.950348e-09	1.499843e+00	1.499901e+00	
117	3.958802e-09	1.499845e+00	1.499900e+00	
118	3.966506e-09	1.499846e+00	1.499897e+00	
119	3.974519e-09	1.499846e+00	1.499896e+00	
120	3.984933e-09	1.499846e+00	1.499906e+00	
121	3.993537e-09	1.499847e+00	1.499903e+00	
122	4.002916e-09	1.499847e+00	1.499903e+00	
123	4.011472e-09	1.499847e+00	1.499901e+00	
124	4.021543e-09	1.499848e+00	1.499901e+00	
125	4.023119e-09	1.499848e+00	1.499901e+00	
126	4.026270e-09	1.499848e+00	1.499897e+00	
127	4.032572e-09	1.499847e+00	1.499896e+00	
128	4.040017e-09	1.499848e+00	1.499898e+00	
129	4.047757e-09	1.499848e+00	1.499903e+00	
130	4.056866e-09	1.499848e+00	1.499902e+00	
131	4.064198e-09	1.499848e+00	1.499905e+00	
132	4.072158e-09	1.499849e+00	1.499914e+00	
133	4.082421e-09	1.499849e+00	1.499878e+00	
134	4.091538e-09	1.499848e+00	1.499822e+00	
135	4.099255e-09	1.499849e+00	1.500020e+00	
136	4.107469e-09	1.499849e+00	1.500835e+00	
137	4.117710e-09	1.499849e+00	1.499265e+00	
138	4.126042e-09	1.499850e+00	1.493557e+00	
139	4.135072e-09	1.499850e+00	1.507716e+00	
140	4.144272e-09	1.499850e+00	1.573056e+00	
141	4.153948e-09	1.499851e+00	1.495713e+00	
142	4.155642e-09	1.499851e+00	1.442038e+00	
143	4.159031e-09	1.499851e+00	1.268081e+00	
144	4.165807e-09	1.499851e+00	8.758489e-01	
145	4.173144e-09	1.499851e+00	4.786193e-01	
146	4.181296e-09	1.499850e+00	2.025561e-01	
147	4.191998e-09	1.499850e+00	6.983807e-02	
148	4.200855e-09	1.499851e+00	7.137364e-02	
149	4.209975e-09	1.499851e+00	5.088466e-02	
150	4.218474e-09	1.499852e+00	3.573542e-02	
151	4.226347e-09	1.499851e+00	2.102946e-02	
152	4.234427e-09	1.499851e+00	9.331086e-03	
153	4.243272e-09	1.499851e+00	5.381341e-03	
154	4.250626e-09	1.499851e+00	3.771664e-03	
155	4.258612e-09	1.499851e+00	1.579030e-03	
156	4.260186e-09	1.499852e+00	1.407709e-03	
157	4.263333e-09	1.499852e+00	1.181566e-03	
158	4.269627e-09	1.499853e+00	1.003678e-03	
159	4.276335e-09	1.499853e+00	6.611853e-04	
160	4.282560e-09	1.499853e+00	3.974677e-04	
161	4.289293e-09	1.499854e+00	2.876058e-04	
162	4.298552e-09	1.499855e+00	3.092624e-04	
163	4.309075e-09	1.499853e+00	2.121151e-04	
164	4.316278e-09	1.499852e+00	2.149349e-04	
165	4.324161e-09	1.499853e+00	2.211662e-04	
166	4.333949e-09	1.499853e+00	1.974653e-04	
167	4.341543e-09	1.499854e+00	1.881454e-04	
168	4.350097e-09	1.499854e+00	1.893286e-04	
169	4.351416e-09	1.499854e+00	1.860474e-04	
170	4.354056e-09	1.499854e+00	1.841765e-04	

Index   time            v(out25)        v(out50)        
--------------------------------------------------------------------------------
171	4.359334e-09	1.499854e+00	1.837348e-04	
172	4.366338e-09	1.499855e+00	1.882948e-04	
173	4.372522e-09	1.499855e+00	1.892963e-04	
174	4.379431e-09	1.499855e+00	1.874278e-04	
175	4.381037e-09	1.499855e+00	1.841110e-04	
176	4.384250e-09	1.499855e+00	1.799870e-04	
177	4.390676e-09	1.499856e+00	1.840265e-04	
178	4.397246e-09	1.499856e+00	1.898204e-04	
179	4.403286e-09	1.499856e+00	1.875407e-04	
180	4.409940e-09	1.499857e+00	1.863348e-04	
181	4.419513e-09	1.499857e+00	1.904440e-04	
182	4.429356e-09	1.499856e+00	2.085852e-04	
183	4.436500e-09	1.499855e+00	2.147989e-04	
184	4.443931e-09	1.499854e+00	1.899408e-04	
185	4.453839e-09	1.499852e+00	1.864208e-04	
186	4.462219e-09	1.499855e+00	1.838108e-04	
187	4.471158e-09	1.499873e+00	1.823324e-04	
188	4.472290e-09	1.499871e+00	1.787010e-04	
189	4.474556e-09	1.499872e+00	1.714905e-04	
190	4.479087e-09	1.499841e+00	1.752878e-04	
191	4.486866e-09	1.499754e+00	1.861103e-04	
192	4.493481e-09	1.499784e+00	1.824505e-04	
193	4.500717e-09	1.500604e+00	1.824482e-04	
194	4.502441e-09	1.500717e+00	1.761084e-04	
195	4.505889e-09	1.501102e+00	1.720236e-04	
196	4.512785e-09	1.499282e+00	1.779465e-04	
197	4.519468e-09	1.493970e+00	1.847107e-04	
198	4.526123e-09	1.496594e+00	1.819561e-04	
199	4.533068e-09	1.533808e+00	1.810618e-04	
200	4.541222e-09	1.572937e+00	1.823877e-04	
201	4.550991e-09	1.303910e+00	1.804461e-04	
202	4.558230e-09	8.684008e-01	1.766916e-04	
203	4.565957e-09	4.537587e-01	1.996808e-04	
204	4.575431e-09	1.712835e-01	2.089667e-04	
205	4.583081e-09	1.099804e-01	1.723470e-04	
206	4.591748e-09	7.792071e-02	1.633156e-04	
207	4.592944e-09	6.908173e-02	1.685914e-04	
208	4.595336e-09	5.247980e-02	1.688138e-04	
209	4.600121e-09	2.916508e-02	1.698289e-04	
210	4.607726e-09	1.649211e-02	1.709531e-04	
211	4.614154e-09	1.459451e-02	1.714227e-04	
212	4.621278e-09	7.008085e-03	1.690213e-04	
213	4.622946e-09	5.699391e-03	1.660883e-04	
214	4.626282e-09	3.753465e-03	1.612531e-04	
215	4.632955e-09	2.884864e-03	1.690340e-04	
216	4.639513e-09	2.825438e-03	1.646348e-04	
217	4.645749e-09	1.754456e-03	1.633516e-04	
218	4.652422e-09	5.638690e-04	1.631538e-04	
219	4.660785e-09	7.594076e-04	1.587363e-04	
220	4.671141e-09	4.616289e-04	1.622403e-04	
221	4.678190e-09	1.908923e-04	1.622713e-04	
222	4.685801e-09	1.756211e-04	1.692722e-04	
223	4.696062e-09	2.832863e-04	1.610079e-04	
224	4.704202e-09	1.297562e-04	1.650501e-04	
225	4.713031e-09	1.773671e-04	1.668725e-04	
226	4.714237e-09	1.832519e-04	1.663963e-04	
227	4.716649e-09	1.877145e-04	1.701998e-04	
228	4.721474e-09	1.764056e-04	1.748012e-04	

Index   time            v(out25)        v(out50)        
--------------------------------------------------------------------------------
229	4.728792e-09	1.598968e-04	1.657680e-04	
230	4.735031e-09	1.645657e-04	1.690028e-04	
231	4.741925e-09	1.664521e-04	1.711582e-04	
232	4.743517e-09	1.658617e-04	1.699604e-04	
233	4.746702e-09	1.641769e-04	1.722415e-04	
234	4.753073e-09	1.624949e-04	1.833844e-04	
235	4.759584e-09	1.631035e-04	1.714179e-04	
236	4.765573e-09	1.636538e-04	1.731025e-04	
237	4.772158e-09	1.632304e-04	1.755597e-04	
238	4.781406e-09	1.627476e-04	1.805270e-04	
239	4.791447e-09	1.626706e-04	1.830816e-04	
240	4.798712e-09	1.627079e-04	1.801022e-04	
241	4.806119e-09	1.624156e-04	1.795870e-04	
242	4.815351e-09	1.627201e-04	2.091758e-04	
243	4.823665e-09	1.624577e-04	2.082696e-04	
244	4.832670e-09	1.624757e-04	1.852241e-04	
245	4.833724e-09	1.630402e-04	1.756477e-04	
246	4.835834e-09	1.643070e-04	1.688911e-04	
247	4.840053e-09	1.644483e-04	1.993499e-04	
248	4.848491e-09	1.631541e-04	1.898292e-04	
249	4.855237e-09	1.627382e-04	1.850254e-04	
250	4.862543e-09	1.626581e-04	2.975425e-04	
251	4.864276e-09	1.631728e-04	3.015103e-04	
252	4.867742e-09	1.638050e-04	2.871613e-04	
253	4.874674e-09	1.634094e-04	-4.183756e-05	
254	4.881481e-09	1.628252e-04	-5.853607e-04	
255	4.888443e-09	1.627056e-04	7.472888e-04	
256	4.895592e-09	1.625330e-04	5.348019e-03	
257	4.903642e-09	1.624327e-04	3.633447e-03	
258	4.913324e-09	1.620741e-04	-3.595536e-02	
259	4.922219e-09	1.599329e-04	3.800379e-02	
260	4.930329e-09	1.580690e-04	4.199149e-01	
261	4.940024e-09	1.560886e-04	1.042350e+00	
262	4.947450e-09	1.539748e-04	1.311056e+00	
263	4.954477e-09	1.514361e-04	1.410735e+00	
264	4.963484e-09	1.579354e-04	1.451805e+00	
265	4.973677e-09	1.582386e-04	1.460473e+00	
266	4.985188e-09	1.583670e-04	1.475159e+00	
267	4.993263e-09	1.582906e-04	1.488162e+00	
268	5.001994e-09	1.581935e-04	1.488534e+00	
269	5.013508e-09	1.580307e-04	1.493490e+00	
270	5.014870e-09	1.579634e-04	1.494377e+00	
271	5.017594e-09	1.577720e-04	1.495890e+00	
272	5.023041e-09	1.576284e-04	1.496957e+00	
273	5.029186e-09	1.574533e-04	1.497279e+00	
274	5.036254e-09	1.576738e-04	1.498316e+00	
275	5.047974e-09	1.574528e-04	1.499403e+00	
276	5.049320e-09	1.573605e-04	1.499430e+00	
277	5.052013e-09	1.571411e-04	1.499449e+00	
278	5.057397e-09	1.570257e-04	1.499435e+00	
279	5.064527e-09	1.569230e-04	1.499603e+00	
280	5.071792e-09	1.569325e-04	1.499755e+00	
281	5.080060e-09	1.567429e-04	1.499770e+00	
282	5.086776e-09	1.566334e-04	1.499777e+00	
283	5.094016e-09	1.563492e-04	1.499823e+00	
284	5.100000e-09	1.561489e-04	1.499845e+00	
285	5.100932e-09	1.557816e-04	1.499803e+00	
286	5.102796e-09	1.554794e-04	1.499741e+00	

Index   time            v(out25)        v(out50)        
--------------------------------------------------------------------------------
287	5.106525e-09	1.560006e-04	1.499695e+00	
288	5.113982e-09	1.566617e-04	1.499724e+00	
289	5.120801e-09	1.569493e-04	1.499775e+00	
290	5.128136e-09	1.562834e-04	1.499810e+00	
291	5.136379e-09	1.560419e-04	1.499833e+00	
292	5.144269e-09	1.557610e-04	1.499846e+00	
293	5.151150e-09	1.556468e-04	1.499856e+00	
294	5.158456e-09	1.556786e-04	1.499859e+00	
295	5.166972e-09	1.556321e-04	1.499863e+00	
296	5.175516e-09	1.555817e-04	1.499868e+00	
297	5.182005e-09	1.553809e-04	1.499872e+00	
298	5.189274e-09	1.551427e-04	1.499873e+00	
299	5.198859e-09	1.545751e-04	1.499878e+00	
300	5.209723e-09	1.536090e-04	1.499883e+00	
301	5.217337e-09	1.539298e-04	1.499889e+00	
302	5.225429e-09	1.550411e-04	1.499892e+00	
303	5.235213e-09	1.546676e-04	1.499895e+00	
304	5.236622e-09	1.542031e-04	1.499896e+00	
305	5.239441e-09	1.540166e-04	1.499899e+00	
306	5.245079e-09	1.544341e-04	1.499901e+00	
307	5.251292e-09	1.564266e-04	1.499901e+00	
308	5.258244e-09	1.531923e-04	1.499898e+00	
309	5.267436e-09	1.465556e-04	1.499899e+00	
310	5.274928e-09	1.424084e-04	1.499895e+00	
311	5.283100e-09	2.150537e-04	1.499891e+00	
312	5.291076e-09	2.648470e-04	1.499886e+00	
313	5.299621e-09	-1.306685e-04	1.499883e+00	
314	5.301149e-09	-2.794511e-04	1.499881e+00	
315	5.304206e-09	-5.687071e-04	1.499873e+00	
316	5.310319e-09	-5.118151e-04	1.499876e+00	
317	5.317008e-09	2.827339e-03	1.499872e+00	
318	5.323655e-09	8.149497e-03	1.499868e+00	
319	5.334764e-09	-9.654427e-03	1.499862e+00	
320	5.336251e-09	-1.827123e-02	1.499858e+00	
321	5.339226e-09	-4.443352e-02	1.499851e+00	
322	5.345176e-09	-4.939609e-02	1.499837e+00	
323	5.350678e-09	4.913221e-02	1.499861e+00	
324	5.358692e-09	5.063626e-01	1.499860e+00	
325	5.367948e-09	1.090603e+00	1.499855e+00	
326	5.374447e-09	1.305210e+00	1.499853e+00	
327	5.381767e-09	1.401617e+00	1.499850e+00	
328	5.392460e-09	1.438603e+00	1.499849e+00	
329	5.402886e-09	1.474991e+00	1.499848e+00	
330	5.410752e-09	1.488732e+00	1.499848e+00	
331	5.419006e-09	1.487643e+00	1.499845e+00	
332	5.428342e-09	1.494205e+00	1.499850e+00	
333	5.429827e-09	1.495290e+00	1.499849e+00	
334	5.432796e-09	1.496905e+00	1.499843e+00	
335	5.438735e-09	1.497877e+00	1.499850e+00	
336	5.445171e-09	1.497693e+00	1.499850e+00	
337	5.451813e-09	1.498759e+00	1.499850e+00	
338	5.462111e-09	1.499688e+00	1.499848e+00	
339	5.463511e-09	1.499699e+00	1.499849e+00	
340	5.466310e-09	1.499671e+00	1.499844e+00	
341	5.471909e-09	1.499539e+00	1.499851e+00	
342	5.478276e-09	1.499622e+00	1.499852e+00	
343	5.485167e-09	1.499822e+00	1.499852e+00	
344	5.496718e-09	1.499799e+00	1.499851e+00	

Index   time            v(out25)        v(out50)        
--------------------------------------------------------------------------------
345	5.498120e-09	1.499795e+00	1.499851e+00	
346	5.500924e-09	1.499789e+00	1.499852e+00	
347	5.506533e-09	1.499806e+00	1.499850e+00	
348	5.513408e-09	1.499853e+00	1.499853e+00	
349	5.520774e-09	1.499848e+00	1.499855e+00	
350	5.529193e-09	1.499839e+00	1.499855e+00	
351	5.535910e-09	1.499849e+00	1.499855e+00	
352	5.543161e-09	1.499854e+00	1.499855e+00	
353	5.552528e-09	1.499850e+00	1.499853e+00	
354	5.562060e-09	1.499850e+00	1.499858e+00	
355	5.568879e-09	1.499854e+00	1.499858e+00	
356	5.576452e-09	1.499852e+00	1.499858e+00	
357	5.585974e-09	1.499852e+00	1.499857e+00	
358	5.594466e-09	1.499853e+00	1.499856e+00	
359	5.601307e-09	1.499853e+00	1.499860e+00	
360	5.608757e-09	1.499853e+00	1.499860e+00	
361	5.617534e-09	1.499854e+00	1.499861e+00	
362	5.625965e-09	1.499854e+00	1.499860e+00	
363	5.632608e-09	1.499854e+00	1.499862e+00	
364	5.639910e-09	1.499855e+00	1.499862e+00	
365	5.648882e-09	1.499855e+00	1.499861e+00	
366	5.658054e-09	1.499855e+00	1.499862e+00	
367	5.664733e-09	1.499855e+00	1.499866e+00	
368	5.672111e-09	1.499855e+00	1.499884e+00	
369	5.681791e-09	1.499855e+00	1.499837e+00	
370	5.691046e-09	1.499854e+00	1.499754e+00	
371	5.697927e-09	1.499855e+00	1.499875e+00	
372	5.705505e-09	1.499855e+00	1.500834e+00	
373	5.714689e-09	1.499855e+00	1.500335e+00	
374	5.723043e-09	1.499855e+00	1.494639e+00	
375	5.729820e-09	1.499856e+00	1.491577e+00	
376	5.737197e-09	1.499856e+00	1.525764e+00	
377	5.745957e-09	1.499856e+00	1.588815e+00	
378	5.754481e-09	1.499856e+00	1.427995e+00	
379	5.760989e-09	1.499856e+00	1.008280e+00	
380	5.768271e-09	1.499856e+00	5.585930e-01	
381	5.777587e-09	1.499856e+00	2.106563e-01	
382	5.787924e-09	1.499856e+00	7.123750e-02	
383	5.797197e-09	1.499857e+00	6.068397e-02	
384	5.808559e-09	1.499858e+00	6.086303e-02	
385	5.819526e-09	1.499857e+00	1.984189e-02	
386	5.820984e-09	1.499857e+00	1.956559e-02	
387	5.823901e-09	1.499857e+00	1.878220e-02	
388	5.829734e-09	1.499857e+00	1.514932e-02	
389	5.836296e-09	1.499857e+00	7.902639e-03	
390	5.842753e-09	1.499857e+00	4.323140e-03	
391	5.853955e-09	1.499857e+00	3.031169e-03	
392	5.855396e-09	1.499857e+00	2.909724e-03	
393	5.858278e-09	1.499857e+00	2.529834e-03	
394	5.864041e-09	1.499857e+00	1.384207e-03	
395	5.870761e-09	1.499857e+00	8.395610e-04	
396	5.878579e-09	1.499858e+00	8.094035e-04	
397	5.886097e-09	1.499859e+00	5.447032e-04	
398	5.893121e-09	1.499858e+00	2.869456e-04	
399	5.900420e-09	1.499858e+00	2.662214e-04	
400	5.908751e-09	1.499858e+00	2.725165e-04	
401	5.916566e-09	1.499858e+00	1.939457e-04	
402	5.923384e-09	1.499858e+00	1.870928e-04	

Index   time            v(out25)        v(out50)        
--------------------------------------------------------------------------------
403	5.930623e-09	1.499858e+00	2.000725e-04	
404	5.939089e-09	1.499858e+00	1.878239e-04	
405	5.947150e-09	1.499857e+00	1.764961e-04	
406	5.953819e-09	1.499857e+00	1.819375e-04	
407	5.961011e-09	1.499857e+00	1.796178e-04	
408	5.969643e-09	1.499857e+00	1.763899e-04	
409	5.977828e-09	1.499857e+00	1.781832e-04	
410	5.984575e-09	1.499856e+00	1.798580e-04	
411	5.991831e-09	1.499856e+00	1.802090e-04	
412	6.000502e-09	1.499856e+00	1.816536e-04	
413	6.008554e-09	1.499856e+00	1.788475e-04	
414	6.015417e-09	1.499858e+00	1.764407e-04	
415	6.022724e-09	1.499860e+00	1.734587e-04	
416	6.031270e-09	1.499863e+00	1.693070e-04	
417	6.039103e-09	1.499867e+00	1.658996e-04	
418	6.046042e-09	1.499872e+00	1.621462e-04	
419	6.053363e-09	1.499866e+00	1.709666e-04	
420	6.061775e-09	1.499861e+00	1.726414e-04	
421	6.069530e-09	1.499861e+00	1.737846e-04	
422	6.076337e-09	1.499870e+00	1.741373e-04	
423	6.083555e-09	1.499883e+00	1.727970e-04	
424	6.091897e-09	1.499825e+00	1.727934e-04	
425	6.099879e-09	1.499731e+00	1.738531e-04	
426	6.106597e-09	1.499931e+00	1.716950e-04	
427	6.113804e-09	1.500933e+00	1.721353e-04	
428	6.122462e-09	1.499974e+00	1.717985e-04	
429	6.130615e-09	1.493692e+00	1.680860e-04	
430	6.137403e-09	1.493725e+00	1.675001e-04	
431	6.144691e-09	1.536388e+00	1.660924e-04	
432	6.153419e-09	1.569378e+00	1.653645e-04	
433	6.161371e-09	1.316274e+00	1.650174e-04	
434	6.168373e-09	8.601775e-01	1.661432e-04	
435	6.175758e-09	4.465383e-01	1.606806e-04	
436	6.184257e-09	1.852714e-01	1.600124e-04	
437	6.191916e-09	1.111055e-01	1.616710e-04	
438	6.198921e-09	9.469383e-02	1.558198e-04	
439	6.206255e-09	5.026459e-02	1.555375e-04	
440	6.214505e-09	1.952036e-02	1.549601e-04	
441	6.222115e-09	1.585052e-02	1.572391e-04	
442	6.229001e-09	1.080492e-02	1.504542e-04	
443	6.236257e-09	3.274953e-03	1.503576e-04	
444	6.244627e-09	2.356765e-03	1.504002e-04	
445	6.252528e-09	2.617572e-03	1.551744e-04	
446	6.259324e-09	1.146456e-03	1.491226e-04	
447	6.266564e-09	4.372462e-04	1.509311e-04	
448	6.275122e-09	7.287470e-04	1.522277e-04	
449	6.283120e-09	4.236729e-04	1.539194e-04	
450	6.290033e-09	1.599699e-04	1.549549e-04	
451	6.297371e-09	2.232650e-04	1.624670e-04	
452	6.306025e-09	2.441900e-04	1.573820e-04	
453	6.313828e-09	1.559955e-04	1.603153e-04	
454	6.320726e-09	1.631947e-04	1.621203e-04	
455	6.328023e-09	1.854281e-04	1.641160e-04	
456	6.336396e-09	1.673913e-04	1.657193e-04	
457	6.344135e-09	1.579478e-04	1.678361e-04	
458	6.351016e-09	1.675715e-04	1.691196e-04	
459	6.358286e-09	1.657047e-04	1.761372e-04	
460	6.366707e-09	1.605644e-04	1.703801e-04	

Index   time            v(out25)        v(out50)        
--------------------------------------------------------------------------------
461	6.374556e-09	1.628418e-04	1.725675e-04	
462	6.381399e-09	1.625341e-04	1.737214e-04	
463	6.388654e-09	1.622857e-04	1.790662e-04	
464	6.397093e-09	1.601548e-04	1.735777e-04	
465	6.404971e-09	1.616253e-04	1.761972e-04	
466	6.411842e-09	1.607986e-04	1.771466e-04	
467	6.419118e-09	1.587584e-04	1.980433e-04	
468	6.427573e-09	1.585390e-04	1.689687e-04	
469	6.435439e-09	1.571482e-04	1.753281e-04	
470	6.442264e-09	1.561828e-04	1.923630e-04	
471	6.449521e-09	1.586877e-04	1.738069e-04	
472	6.458030e-09	1.588781e-04	1.738858e-04	
473	6.465941e-09	1.605998e-04	1.864619e-04	
474	6.472774e-09	1.612727e-04	1.951676e-04	
475	6.480039e-09	1.628901e-04	2.907543e-04	
476	6.488538e-09	1.614662e-04	6.305909e-05	
477	6.496407e-09	1.605512e-04	-6.157561e-04	
478	6.503276e-09	1.601165e-04	1.496604e-04	
479	6.510553e-09	1.598652e-04	5.295279e-03	
480	6.518987e-09	1.593576e-04	4.316679e-03	
481	6.526791e-09	1.589456e-04	-2.997486e-02	
482	6.533688e-09	1.584888e-04	-5.062923e-02	
483	6.540974e-09	1.584991e-04	1.197771e-01	
484	6.549399e-09	1.577443e-04	6.742510e-01	
485	6.557031e-09	1.569091e-04	1.131560e+00	
486	6.563836e-09	1.550131e-04	1.342414e+00	
487	6.570997e-09	1.570249e-04	1.421148e+00	
488	6.578876e-09	1.567547e-04	1.451586e+00	
489	6.590694e-09	1.578532e-04	1.460689e+00	
490	6.600383e-09	1.568369e-04	1.479084e+00	
491	6.610327e-09	1.567819e-04	1.487304e+00	
492	6.620370e-09	1.562500e-04	1.489170e+00	
493	6.630270e-09	1.615038e-04	1.496036e+00	
494	6.637962e-09	1.585941e-04	1.497120e+00	
495	6.646109e-09	1.578931e-04	1.497789e+00	
496	6.655205e-09	1.559419e-04	1.499190e+00	
497	6.656662e-09	1.548494e-04	1.499273e+00	
498	6.659577e-09	1.557566e-04	1.499372e+00	
499	6.665407e-09	1.563267e-04	1.499413e+00	
500	6.671721e-09	1.566026e-04	1.499490e+00	
501	6.678197e-09	1.568731e-04	1.499696e+00	
502	6.689182e-09	1.567445e-04	1.499776e+00	
503	6.690620e-09	1.567316e-04	1.499774e+00	
504	6.693495e-09	1.566673e-04	1.499774e+00	
505	6.699245e-09	1.565319e-04	1.499787e+00	
506	6.704655e-09	1.564487e-04	1.499825e+00	
507	6.712370e-09	1.563451e-04	1.499844e+00	
508	6.722750e-09	1.562451e-04	1.499839e+00	
509	6.729724e-09	1.560279e-04	1.499850e+00	
510	6.737254e-09	1.559047e-04	1.499856e+00	
511	6.747618e-09	1.556467e-04	1.499855e+00	
512	6.755968e-09	1.556005e-04	1.499856e+00	
513	6.763626e-09	1.556016e-04	1.499856e+00	
514	6.771544e-09	1.555297e-04	1.499861e+00	
515	6.779909e-09	1.552906e-04	1.499860e+00	
516	6.781348e-09	1.551991e-04	1.499859e+00	
517	6.784227e-09	1.551099e-04	1.499862e+00	
518	6.789985e-09	1.549038e-04	1.499864e+00	

Index   time            v(out25)        v(out50)        
--------------------------------------------------------------------------------
519	6.796096e-09	1.551268e-04	1.499865e+00	
520	6.803295e-09	1.551302e-04	1.499869e+00	
521	6.812454e-09	1.548207e-04	1.499872e+00	
522	6.813835e-09	1.547483e-04	1.499873e+00	
523	6.816597e-09	1.547211e-04	1.499875e+00	
524	6.822120e-09	1.546391e-04	1.499876e+00	
525	6.828023e-09	1.546517e-04	1.499883e+00	
526	6.834470e-09	1.543936e-04	1.499884e+00	
527	6.844275e-09	1.542358e-04	1.499888e+00	
528	6.851623e-09	1.542581e-04	1.499892e+00	
529	6.859444e-09	1.561557e-04	1.499896e+00	
530	6.867112e-09	1.531481e-04	1.499897e+00	
531	6.876034e-09	1.442068e-04	1.499899e+00	
532	6.877602e-09	1.435608e-04	1.499895e+00	
533	6.880738e-09	1.372903e-04	1.499898e+00	
534	6.887011e-09	1.873357e-04	1.499899e+00	
535	6.893625e-09	2.559330e-04	1.499897e+00	
536	6.900605e-09	1.961189e-04	1.499894e+00	
537	6.902092e-09	8.615123e-05	1.499892e+00	
538	6.905064e-09	-1.528500e-04	1.499892e+00	
539	6.911009e-09	-6.243147e-04	1.499890e+00	
540	6.919573e-09	5.392413e-04	1.499882e+00	
541	6.927642e-09	6.339134e-03	1.499881e+00	
542	6.935563e-09	3.575984e-03	1.499874e+00	
543	6.942871e-09	-3.163943e-02	1.499869e+00	
544	6.950568e-09	-3.924207e-02	1.499865e+00	
545	6.958362e-09	1.800488e-01	1.499860e+00	
546	6.966458e-09	7.339382e-01	1.499855e+00	
547	6.973918e-09	1.147460e+00	1.499850e+00	
548	6.981306e-09	1.347708e+00	1.499844e+00	
549	6.988882e-09	1.413168e+00	1.499848e+00	
550	6.997043e-09	1.435733e+00	1.499849e+00	
551	7.004778e-09	1.467677e+00	1.499847e+00	
552	7.011566e-09	1.485258e+00	1.499849e+00	
553	7.018782e-09	1.485984e+00	1.499848e+00	
554	7.027152e-09	1.490215e+00	1.499848e+00	
555	7.035673e-09	1.496597e+00	1.499844e+00	
556	7.042097e-09	1.497770e+00	1.499847e+00	
557	7.049275e-09	1.497552e+00	1.499847e+00	
558	7.058534e-09	1.499169e+00	1.499846e+00	
559	7.067734e-09	1.499744e+00	1.499848e+00	
560	7.074412e-09	1.499505e+00	1.499848e+00	
561	7.081832e-09	1.499599e+00	1.499847e+00	
562	7.091010e-09	1.499870e+00	1.499849e+00	
563	7.099433e-09	1.499775e+00	1.499849e+00	
564	7.106355e-09	1.499782e+00	1.499848e+00	
565	7.113781e-09	1.499846e+00	1.499851e+00	
566	7.122378e-09	1.499849e+00	1.499851e+00	
567	7.130569e-09	1.499831e+00	1.499850e+00	
568	7.137323e-09	1.499846e+00	1.499852e+00	
569	7.144596e-09	1.499851e+00	1.499852e+00	
570	7.153177e-09	1.499846e+00	1.499852e+00	
571	7.161664e-09	1.499847e+00	1.499854e+00	
572	7.168193e-09	1.499850e+00	1.499854e+00	
573	7.175411e-09	1.499849e+00	1.499854e+00	
574	7.184413e-09	1.499849e+00	1.499856e+00	
575	7.193154e-09	1.499849e+00	1.499856e+00	
576	7.199701e-09	1.499849e+00	1.499855e+00	

Index   time            v(out25)        v(out50)        
--------------------------------------------------------------------------------
577	7.206933e-09	1.499849e+00	1.499857e+00	
578	7.216133e-09	1.499850e+00	1.499857e+00	
579	7.224872e-09	1.499850e+00	1.499857e+00	
580	7.231413e-09	1.499850e+00	1.499860e+00	
581	7.238715e-09	1.499850e+00	1.499860e+00	
582	7.247760e-09	1.499851e+00	1.499859e+00	
583	7.256344e-09	1.499851e+00	1.499857e+00	
584	7.262914e-09	1.499851e+00	1.499865e+00	
585	7.270194e-09	1.499852e+00	1.499882e+00	
586	7.279133e-09	1.499852e+00	1.499838e+00	
587	7.287726e-09	1.499852e+00	1.499749e+00	
588	7.294239e-09	1.499852e+00	1.499831e+00	
589	7.301494e-09	1.499851e+00	1.500784e+00	
590	7.310527e-09	1.499851e+00	1.500518e+00	
591	7.319186e-09	1.499851e+00	1.494945e+00	
592	7.325719e-09	1.499851e+00	1.490786e+00	
593	7.332945e-09	1.499850e+00	1.522667e+00	
594	7.342089e-09	1.499852e+00	1.583508e+00	
595	7.350844e-09	1.499852e+00	1.396209e+00	
596	7.357388e-09	1.499853e+00	9.678811e-01	
597	7.364691e-09	1.499854e+00	5.203481e-01	
598	7.373820e-09	1.499855e+00	1.944692e-01	
599	7.384836e-09	1.499856e+00	6.242226e-02	
600	7.394077e-09	1.499854e+00	6.270911e-02	
601	7.405090e-09	1.499853e+00	5.606470e-02	
602	7.407035e-09	1.499853e+00	4.664516e-02	
603	7.410925e-09	1.499854e+00	3.171998e-02	
604	7.418706e-09	1.499854e+00	1.893310e-02	
605	7.425240e-09	1.499854e+00	1.520883e-02	
606	7.432168e-09	1.499854e+00	7.563412e-03	
607	7.441898e-09	1.499855e+00	3.510587e-03	
608	7.450888e-09	1.499855e+00	3.152756e-03	
609	7.457707e-09	1.499855e+00	1.758485e-03	
610	7.465182e-09	1.499855e+00	8.215764e-04	
611	7.474216e-09	1.499855e+00	8.221110e-04	
612	7.482048e-09	1.499855e+00	5.223085e-04	
613	7.489372e-09	1.499855e+00	2.507329e-04	
614	7.496964e-09	1.499855e+00	2.713149e-04	
615	7.505326e-09	1.499856e+00	2.579119e-04	
616	7.512757e-09	1.499856e+00	1.855177e-04	
617	7.520426e-09	1.499856e+00	2.013069e-04	
618	7.528212e-09	1.499856e+00	1.885452e-04	
619	7.536434e-09	1.499856e+00	1.768448e-04	
620	7.537894e-09	1.499856e+00	1.741906e-04	
621	7.540814e-09	1.499856e+00	1.726013e-04	
622	7.546654e-09	1.499856e+00	1.755075e-04	
623	7.552117e-09	1.499856e+00	1.767033e-04	
624	7.559194e-09	1.499857e+00	1.773386e-04	
625	7.568284e-09	1.499857e+00	1.734612e-04	
626	7.569689e-09	1.499857e+00	1.742083e-04	
627	7.572499e-09	1.499857e+00	1.749607e-04	
628	7.578120e-09	1.499857e+00	1.761530e-04	
629	7.584961e-09	1.499857e+00	1.757470e-04	
630	7.591251e-09	1.499857e+00	1.746248e-04	
631	7.603064e-09	1.499857e+00	1.731935e-04	
632	7.604417e-09	1.499857e+00	1.729902e-04	
633	7.607123e-09	1.499857e+00	1.727369e-04	
634	7.612534e-09	1.499857e+00	1.726076e-04	

Index   time            v(out25)        v(out50)        
--------------------------------------------------------------------------------
635	7.620797e-09	1.499858e+00	1.727481e-04	
636	7.628681e-09	1.499858e+00	1.747183e-04	
637	7.630199e-09	1.499858e+00	1.725092e-04	
638	7.633236e-09	1.499857e+00	1.699616e-04	
639	7.639310e-09	1.499857e+00	1.690128e-04	
640	7.644937e-09	1.499858e+00	1.697345e-04	
641	7.651853e-09	1.499858e+00	1.703445e-04	
642	7.661554e-09	1.499857e+00	1.717797e-04	
643	7.662998e-09	1.499858e+00	1.704868e-04	
644	7.665886e-09	1.499855e+00	1.689185e-04	
645	7.671662e-09	1.499871e+00	1.680070e-04	
646	7.677670e-09	1.499876e+00	1.686677e-04	
647	7.685082e-09	1.499847e+00	1.691087e-04	
648	7.694274e-09	1.499753e+00	1.711683e-04	
649	7.695611e-09	1.499705e+00	1.699405e-04	
650	7.698286e-09	1.499691e+00	1.686465e-04	
651	7.703635e-09	1.500206e+00	1.676897e-04	
652	7.711289e-09	1.501091e+00	1.678909e-04	
653	7.718475e-09	1.499707e+00	1.689296e-04	
654	7.725898e-09	1.493731e+00	1.665008e-04	
655	7.732652e-09	1.492344e+00	1.653227e-04	
656	7.739760e-09	1.529765e+00	1.655710e-04	
657	7.748119e-09	1.576102e+00	1.621011e-04	
658	7.756434e-09	1.364927e+00	1.615413e-04	
659	7.762871e-09	9.406708e-01	1.616160e-04	
660	7.769974e-09	5.128478e-01	1.576593e-04	
661	7.778894e-09	2.065598e-01	1.570429e-04	
662	7.787395e-09	1.094053e-01	1.583463e-04	
663	7.793961e-09	9.789269e-02	1.529303e-04	
664	7.801189e-09	5.615050e-02	1.520994e-04	
665	7.810074e-09	1.996068e-02	1.534563e-04	
666	7.818327e-09	1.563173e-02	1.481638e-04	
667	7.825095e-09	1.071624e-02	1.483746e-04	
668	7.832384e-09	3.100752e-03	1.512825e-04	
669	7.841018e-09	2.233895e-03	1.460068e-04	
670	7.848974e-09	2.549181e-03	1.475355e-04	
671	7.855814e-09	1.055072e-03	1.483069e-04	
672	7.863092e-09	4.223039e-04	1.542804e-04	
673	7.871563e-09	7.260242e-04	1.485252e-04	
674	7.879475e-09	4.114470e-04	1.513252e-04	
675	7.886222e-09	1.606336e-04	1.529456e-04	
676	7.893425e-09	2.175817e-04	1.548588e-04	
677	7.901850e-09	2.472619e-04	1.567260e-04	
678	7.909931e-09	1.526939e-04	1.585364e-04	
679	7.916599e-09	1.612798e-04	1.601401e-04	
680	7.923784e-09	1.831009e-04	1.658919e-04	
681	7.932408e-09	1.677636e-04	1.611625e-04	
682	7.940622e-09	1.564735e-04	1.644954e-04	
683	7.947290e-09	1.659680e-04	1.661544e-04	
684	7.954507e-09	1.633116e-04	1.679404e-04	
685	7.963201e-09	1.592717e-04	1.729404e-04	
686	7.971372e-09	1.610272e-04	1.686326e-04	
687	7.978108e-09	1.615516e-04	1.705501e-04	
688	7.985361e-09	1.594475e-04	1.718712e-04	
689	7.994004e-09	1.593578e-04	1.770062e-04	
690	8.002064e-09	1.606361e-04	1.717415e-04	
691	8.008831e-09	1.603156e-04	1.735711e-04	
692	8.016081e-09	1.602903e-04	1.880726e-04	

Index   time            v(out25)        v(out50)        
--------------------------------------------------------------------------------
693	8.024636e-09	1.600497e-04	1.678319e-04	
694	8.032644e-09	1.600624e-04	1.730041e-04	
695	8.039413e-09	1.598158e-04	1.754265e-04	
696	8.046651e-09	1.598141e-04	1.909067e-04	
697	8.055174e-09	1.599501e-04	1.627517e-04	
698	8.063205e-09	1.599543e-04	1.627102e-04	
699	8.069939e-09	1.595946e-04	1.999116e-04	
700	8.077161e-09	1.595843e-04	3.081223e-04	
701	8.085728e-09	1.595369e-04	7.421111e-05	
702	8.093823e-09	1.609374e-04	-5.655625e-04	
703	8.100544e-09	1.611209e-04	-2.907870e-05	
704	8.107772e-09	1.622148e-04	4.767847e-03	
705	8.116391e-09	1.597419e-04	4.778847e-03	
706	8.124496e-09	1.604580e-04	-2.848160e-02	
707	8.131230e-09	1.591654e-04	-5.292389e-02	
708	8.138468e-09	1.586381e-04	1.010489e-01	
709	8.147076e-09	1.572273e-04	6.531418e-01	
710	8.154961e-09	1.566678e-04	1.129536e+00	
711	8.161680e-09	1.561187e-04	1.339920e+00	
712	8.168828e-09	1.617908e-04	1.420494e+00	
713	8.176838e-09	1.619012e-04	1.451470e+00	
714	8.188591e-09	1.641333e-04	1.460585e+00	
715	8.198379e-09	1.580975e-04	1.479351e+00	
716	8.208393e-09	1.570634e-04	1.487778e+00	
717	8.218209e-09	1.538579e-04	1.489190e+00	
718	8.228190e-09	1.520075e-04	1.496150e+00	
719	8.235967e-09	1.488789e-04	1.497087e+00	
720	8.244139e-09	1.461233e-04	1.497772e+00	
721	8.253181e-09	1.443364e-04	1.499233e+00	
722	8.254711e-09	1.388344e-04	1.499296e+00	
723	8.257771e-09	1.451264e-04	1.499379e+00	
724	8.263891e-09	1.514334e-04	1.499406e+00	
725	8.270432e-09	1.539816e-04	1.499521e+00	
726	8.277341e-09	1.554295e-04	1.499727e+00	
727	8.278797e-09	1.553784e-04	1.499739e+00	
728	8.281710e-09	1.553012e-04	1.499748e+00	
729	8.287535e-09	1.553874e-04	1.499758e+00	
730	8.295353e-09	1.553585e-04	1.499789e+00	
731	8.303200e-09	1.554765e-04	1.499823e+00	
732	8.310898e-09	1.551562e-04	1.499845e+00	
733	8.318426e-09	1.549114e-04	1.499834e+00	
734	8.325239e-09	1.549375e-04	1.499847e+00	
735	8.332436e-09	1.549819e-04	1.499853e+00	
736	8.340838e-09	1.547078e-04	1.499851e+00	
737	8.349259e-09	1.544959e-04	1.499853e+00	
738	8.355681e-09	1.545082e-04	1.499856e+00	
739	8.362832e-09	1.543902e-04	1.499857e+00	
740	8.371996e-09	1.544205e-04	1.499856e+00	
741	8.380700e-09	1.541313e-04	1.499862e+00	
742	8.387269e-09	1.539596e-04	1.499862e+00	
743	8.394590e-09	1.539532e-04	1.499861e+00	
744	8.403814e-09	1.539037e-04	1.499868e+00	
745	8.412245e-09	1.536900e-04	1.499870e+00	
746	8.419092e-09	1.534285e-04	1.499873e+00	
747	8.426478e-09	1.531121e-04	1.499877e+00	
748	8.435138e-09	1.526893e-04	1.499882e+00	
749	8.443228e-09	1.530960e-04	1.499886e+00	
750	8.450020e-09	1.538871e-04	1.499889e+00	

Index   time            v(out25)        v(out50)        
--------------------------------------------------------------------------------
751	8.457304e-09	1.546680e-04	1.499893e+00	
752	8.465874e-09	1.472920e-04	1.499897e+00	
753	8.474113e-09	1.418216e-04	1.499897e+00	
754	8.480855e-09	1.707945e-04	1.499896e+00	
755	8.488131e-09	2.681315e-04	1.499895e+00	
756	8.496888e-09	8.424973e-05	1.499889e+00	
757	8.505218e-09	-5.566949e-04	1.499890e+00	
758	8.511932e-09	-1.742422e-04	1.499883e+00	
759	8.519207e-09	4.230802e-03	1.499881e+00	
760	8.527911e-09	5.795381e-03	1.499875e+00	
761	8.536248e-09	-2.465991e-02	1.499870e+00	
762	8.542862e-09	-5.664121e-02	1.499865e+00	
763	8.550091e-09	7.173433e-02	1.499859e+00	
764	8.558888e-09	6.056831e-01	1.499858e+00	
765	8.567344e-09	1.116084e+00	1.499854e+00	
766	8.573889e-09	1.318629e+00	1.499852e+00	
767	8.581109e-09	1.403520e+00	1.499848e+00	
768	8.590012e-09	1.432823e+00	1.499845e+00	
769	8.598533e-09	1.467247e+00	1.499841e+00	
770	8.605110e-09	1.485491e+00	1.499840e+00	
771	8.612356e-09	1.486281e+00	1.499843e+00	
772	8.621236e-09	1.490491e+00	1.499846e+00	
773	8.629705e-09	1.496926e+00	1.499844e+00	
774	8.636336e-09	1.497756e+00	1.499845e+00	
775	8.643597e-09	1.497644e+00	1.499844e+00	
776	8.652393e-09	1.499247e+00	1.499846e+00	
777	8.660809e-09	1.499728e+00	1.499844e+00	
778	8.667456e-09	1.499486e+00	1.499842e+00	
779	8.674713e-09	1.499614e+00	1.499838e+00	
780	8.683500e-09	1.499862e+00	1.499840e+00	
781	8.691908e-09	1.499783e+00	1.499846e+00	
782	8.698490e-09	1.499781e+00	1.499845e+00	
783	8.705716e-09	1.499844e+00	1.499848e+00	
784	8.714536e-09	1.499854e+00	1.499848e+00	
785	8.723009e-09	1.499833e+00	1.499848e+00	
786	8.729571e-09	1.499849e+00	1.499850e+00	
787	8.736802e-09	1.499855e+00	1.499850e+00	
788	8.745689e-09	1.499849e+00	1.499850e+00	
789	8.754175e-09	1.499850e+00	1.499852e+00	
790	8.760764e-09	1.499854e+00	1.499852e+00	
791	8.768011e-09	1.499852e+00	1.499852e+00	
792	8.776873e-09	1.499852e+00	1.499854e+00	
793	8.785339e-09	1.499853e+00	1.499854e+00	
794	8.791977e-09	1.499853e+00	1.499854e+00	
795	8.799242e-09	1.499854e+00	1.499854e+00	
796	8.808051e-09	1.499853e+00	1.499852e+00	
797	8.816466e-09	1.499853e+00	1.499857e+00	
798	8.823119e-09	1.499853e+00	1.499857e+00	
799	8.830378e-09	1.499853e+00	1.499857e+00	
800	8.839140e-09	1.499853e+00	1.499855e+00	
801	8.847553e-09	1.499853e+00	1.499855e+00	
802	8.854175e-09	1.499853e+00	1.499864e+00	
803	8.861418e-09	1.499853e+00	1.499879e+00	
804	8.870218e-09	1.499853e+00	1.499831e+00	
805	8.878671e-09	1.499854e+00	1.499741e+00	
806	8.885283e-09	1.499853e+00	1.499880e+00	
807	8.892530e-09	1.499854e+00	1.500848e+00	
808	8.901364e-09	1.499854e+00	1.500267e+00	

Index   time            v(out25)        v(out50)        
--------------------------------------------------------------------------------
809	8.909820e-09	1.499855e+00	1.494278e+00	
810	8.916453e-09	1.499855e+00	1.492117e+00	
811	8.923712e-09	1.499854e+00	1.528525e+00	
812	8.932527e-09	1.499855e+00	1.579141e+00	
813	8.940960e-09	1.499854e+00	1.365894e+00	
814	8.947614e-09	1.499854e+00	9.270289e-01	
815	8.954881e-09	1.499854e+00	4.881450e-01	
816	8.963670e-09	1.499855e+00	1.852801e-01	
817	8.975571e-09	1.499856e+00	5.461466e-02	
818	8.985107e-09	1.499857e+00	6.530377e-02	
819	8.995321e-09	1.499857e+00	5.076221e-02	
820	9.005785e-09	1.499858e+00	1.796484e-02	
821	9.007230e-09	1.499856e+00	1.768262e-02	
822	9.010122e-09	1.499858e+00	1.722613e-02	
823	9.015904e-09	1.499859e+00	1.369383e-02	
824	9.022141e-09	1.499858e+00	7.194059e-03	
825	9.028818e-09	1.499858e+00	3.971960e-03	
826	9.039299e-09	1.499858e+00	2.984176e-03	
827	9.040731e-09	1.499858e+00	2.840087e-03	
828	9.043594e-09	1.499858e+00	2.462005e-03	
829	9.049320e-09	1.499858e+00	1.380036e-03	
830	9.055992e-09	1.499858e+00	8.374166e-04	
831	9.063564e-09	1.499858e+00	8.062002e-04	
832	9.071428e-09	1.499858e+00	5.415247e-04	
833	9.078161e-09	1.499858e+00	2.891279e-04	
834	9.085304e-09	1.499859e+00	2.567065e-04	
835	9.093974e-09	1.499859e+00	2.679535e-04	
836	9.102283e-09	1.499859e+00	1.875907e-04	
837	9.108867e-09	1.499859e+00	1.971592e-04	
838	9.116055e-09	1.499859e+00	1.858752e-04	
839	9.124802e-09	1.499859e+00	1.782096e-04	
840	9.133104e-09	1.499860e+00	1.681179e-04	
841	9.139832e-09	1.499860e+00	1.746535e-04	
842	9.147101e-09	1.499860e+00	1.742540e-04	
843	9.155814e-09	1.499860e+00	1.704330e-04	
844	9.163880e-09	1.499860e+00	1.713909e-04	
845	9.170756e-09	1.499860e+00	1.721546e-04	
846	9.178066e-09	1.499861e+00	1.730216e-04	
847	9.186542e-09	1.499861e+00	1.732778e-04	
848	9.194356e-09	1.499861e+00	1.693668e-04	
849	9.201356e-09	1.499861e+00	1.698529e-04	
850	9.208702e-09	1.499861e+00	1.692556e-04	
851	9.217049e-09	1.499861e+00	1.711717e-04	
852	9.224760e-09	1.499862e+00	1.686535e-04	
853	9.231639e-09	1.499862e+00	1.688788e-04	
854	9.238897e-09	1.499862e+00	1.694330e-04	
855	9.247235e-09	1.499860e+00	1.677123e-04	
856	9.255164e-09	1.499861e+00	1.682418e-04	
857	9.261941e-09	1.499869e+00	1.679215e-04	
858	9.269160e-09	1.499882e+00	1.693748e-04	
859	9.277635e-09	1.499825e+00	1.664418e-04	
860	9.285717e-09	1.499731e+00	1.654968e-04	
861	9.292496e-09	1.499957e+00	1.656529e-04	
862	9.299744e-09	1.500933e+00	1.631424e-04	
863	9.308310e-09	1.499917e+00	1.648724e-04	
864	9.316371e-09	1.493608e+00	1.629413e-04	
865	9.323140e-09	1.493695e+00	1.626685e-04	
866	9.330386e-09	1.534840e+00	1.624780e-04	

Index   time            v(out25)        v(out50)        
--------------------------------------------------------------------------------
867	9.338940e-09	1.571316e+00	1.588809e-04	
868	9.346985e-09	1.329683e+00	1.589055e-04	
869	9.353775e-09	8.858306e-01	1.602467e-04	
870	9.361031e-09	4.691445e-01	1.553718e-04	
871	9.369580e-09	1.948905e-01	1.557695e-04	
872	9.377603e-09	1.111423e-01	1.531768e-04	
873	9.384393e-09	9.641424e-02	1.494287e-04	
874	9.391645e-09	5.399127e-02	1.497627e-04	
875	9.400172e-09	2.028420e-02	1.484710e-04	
876	9.408204e-09	1.584914e-02	1.511161e-04	
877	9.414964e-09	1.091018e-02	1.442838e-04	
878	9.422199e-09	3.303865e-03	1.451946e-04	
879	9.430733e-09	2.257197e-03	1.454361e-04	
880	9.438813e-09	2.573283e-03	1.510345e-04	
881	9.445544e-09	1.128842e-03	1.451430e-04	
882	9.452770e-09	4.316247e-04	1.465707e-04	
883	9.461341e-09	7.267816e-04	1.480395e-04	
884	9.469458e-09	4.221913e-04	1.499915e-04	
885	9.476198e-09	1.638566e-04	1.515107e-04	
886	9.483436e-09	2.178358e-04	1.566887e-04	
887	9.492039e-09	2.461212e-04	1.531854e-04	
888	9.500135e-09	1.544487e-04	1.564230e-04	
889	9.506900e-09	1.614721e-04	1.579307e-04	
890	9.514150e-09	1.839035e-04	1.595956e-04	
891	9.522718e-09	1.674643e-04	1.614174e-04	
892	9.530763e-09	1.572788e-04	1.631708e-04	
893	9.537543e-09	1.664593e-04	1.647044e-04	
894	9.544792e-09	1.651126e-04	1.703766e-04	
895	9.553324e-09	1.598200e-04	1.655269e-04	
896	9.561354e-09	1.615916e-04	1.679527e-04	
897	9.568121e-09	1.625261e-04	1.688341e-04	
898	9.575358e-09	1.612574e-04	1.757932e-04	
899	9.583884e-09	1.612575e-04	1.811926e-04	
900	9.591945e-09	1.616699e-04	1.647496e-04	
901	9.598689e-09	1.612082e-04	1.687978e-04	
902	9.605918e-09	1.613505e-04	1.830970e-04	
903	9.614473e-09	1.608999e-04	1.655136e-04	
904	9.622573e-09	1.603742e-04	1.708451e-04	
905	9.629305e-09	1.598823e-04	1.731416e-04	
906	9.636534e-09	1.598228e-04	1.922202e-04	
907	9.645117e-09	1.601828e-04	1.585359e-04	
908	9.653221e-09	1.602142e-04	1.599032e-04	
909	9.659969e-09	1.597924e-04	1.963460e-04	
910	9.667209e-09	1.609612e-04	2.970117e-04	
911	9.675781e-09	1.593666e-04	7.116460e-05	
912	9.683852e-09	1.593842e-04	-5.716923e-04	
913	9.690616e-09	1.586276e-04	4.034951e-05	
914	9.697858e-09	1.582583e-04	4.845345e-03	
915	9.706402e-09	1.577014e-04	4.650301e-03	
916	9.714454e-09	1.569792e-04	-2.864942e-02	
917	9.721216e-09	1.559652e-04	-5.193916e-02	
918	9.728455e-09	1.555711e-04	1.027174e-01	
919	9.737001e-09	1.548389e-04	6.503537e-01	
920	9.744898e-09	1.548129e-04	1.128016e+00	
921	9.751600e-09	1.536591e-04	1.338611e+00	
922	9.758739e-09	1.535482e-04	1.420018e+00	
923	9.766778e-09	1.534116e-04	1.451315e+00	
924	9.778497e-09	1.583546e-04	1.460487e+00	

Index   time            v(out25)        v(out50)        
--------------------------------------------------------------------------------
925	9.788261e-09	1.575754e-04	1.479179e+00	
926	9.798242e-09	1.600708e-04	1.487733e+00	
927	9.808033e-09	1.574053e-04	1.489124e+00	
928	9.817991e-09	1.575598e-04	1.496128e+00	
929	9.826049e-09	1.572260e-04	1.497013e+00	
930	9.834390e-09	1.573104e-04	1.497838e+00	
931	9.843519e-09	1.568750e-04	1.499276e+00	
932	9.845151e-09	1.571877e-04	1.499315e+00	
933	9.848413e-09	1.571830e-04	1.499383e+00	
934	9.853781e-09	1.569518e-04	1.499384e+00	
935	9.859476e-09	1.566183e-04	1.499515e+00	
936	9.866897e-09	1.561796e-04	1.499717e+00	
937	9.877216e-09	1.559534e-04	1.499766e+00	
938	9.884093e-09	1.560004e-04	1.499768e+00	
939	9.891551e-09	1.560232e-04	1.499814e+00	
940	9.902006e-09	1.550935e-04	1.499847e+00	
941	9.910246e-09	1.546973e-04	1.499830e+00	
942	9.918134e-09	1.542936e-04	1.499847e+00	
943	9.926203e-09	1.555898e-04	1.499852e+00	
944	9.934581e-09	1.554360e-04	1.499847e+00	
945	9.936147e-09	1.553153e-04	1.499848e+00	
946	9.939278e-09	1.555207e-04	1.499848e+00	
947	9.945541e-09	1.560764e-04	1.499852e+00	
948	9.952024e-09	1.563819e-04	1.499853e+00	
949	9.958830e-09	1.561243e-04	1.499852e+00	
950	9.967822e-09	1.564229e-04	1.499857e+00	
951	9.969238e-09	1.560565e-04	1.499856e+00	
952	9.972069e-09	1.563201e-04	1.499857e+00	
953	9.977730e-09	1.581413e-04	1.499857e+00	
954	9.983498e-09	1.588902e-04	1.499861e+00	
955	9.990971e-09	1.561953e-04	1.499862e+00	
956	1.000000e-08	1.550554e-04	1.499865e+00	

CPU time since last call: 21.220 seconds.

Total CPU time: 21.220 seconds.

Current dynamic memory usage = 962560,
Dynamic memory limit = -9547777.

