
Circuit: ** NMOSFET: Benchmarking of B4SOI Id-Vd by Jane Xi 05/09/2003.

Warning: Pd = 0 is less than W.
Warning: Ps = 0 is less than W.
Circuit: ** NMOSFET: Benchmarking of B4SOI Id-Vd by Jane Xi 05/09/2003.
Date: Thu Dec 16 23:37:42  2010


         ** NMOSFET: Benchmarking of B4SOI Id-Vd by Jane Xi 05/09/2003.
         DC transfer characteristic  Thu Dec 16 23:37:42  2010
--------------------------------------------------------------------------------
Index   sweep           vd#branch       vs#branch       
--------------------------------------------------------------------------------
0	0.000000e+00	3.745007e-18	3.745007e-18	
1	1.000000e-02	-1.687405e-09	1.687278e-09	
2	2.000000e-02	-2.912219e-09	2.911978e-09	
3	3.000000e-02	-3.749804e-09	3.749462e-09	
4	4.000000e-02	-4.298757e-09	4.298324e-09	
5	5.000000e-02	-4.658442e-09	4.657925e-09	
6	6.000000e-02	-4.905880e-09	4.905285e-09	
7	7.000000e-02	-5.089866e-09	5.089198e-09	
8	8.000000e-02	-5.237976e-09	5.237238e-09	
9	9.000000e-02	-5.365197e-09	5.364393e-09	
10	1.000000e-01	-5.479741e-09	5.478873e-09	
11	1.100000e-01	-5.586251e-09	5.585320e-09	
12	1.200000e-01	-5.687463e-09	5.686470e-09	
13	1.300000e-01	-5.785058e-09	5.784003e-09	
14	1.400000e-01	-5.880116e-09	5.878999e-09	
15	1.500000e-01	-5.973357e-09	5.972178e-09	
16	1.600000e-01	-6.065279e-09	6.064038e-09	
17	1.700000e-01	-6.156242e-09	6.154937e-09	
18	1.800000e-01	-6.246509e-09	6.245139e-09	
19	1.900000e-01	-6.336283e-09	6.334846e-09	
20	2.000000e-01	-6.425720e-09	6.424216e-09	
21	2.100000e-01	-6.514949e-09	6.513375e-09	
22	2.200000e-01	-6.604071e-09	6.602425e-09	
23	2.300000e-01	-6.693175e-09	6.691454e-09	
24	2.400000e-01	-6.782332e-09	6.780535e-09	
25	2.500000e-01	-6.871607e-09	6.869731e-09	
26	2.600000e-01	-6.961054e-09	6.959098e-09	
27	2.700000e-01	-7.050724e-09	7.048683e-09	
28	2.800000e-01	-7.140659e-09	7.138532e-09	
29	2.900000e-01	-7.230899e-09	7.228683e-09	
30	3.000000e-01	-7.321482e-09	7.319173e-09	
31	3.100000e-01	-7.412439e-09	7.410034e-09	
32	3.200000e-01	-7.503802e-09	7.501298e-09	
33	3.300000e-01	-7.595599e-09	7.592993e-09	
34	3.400000e-01	-7.687856e-09	7.685145e-09	
35	3.500000e-01	-7.780600e-09	7.777780e-09	
36	3.600000e-01	-7.873854e-09	7.870921e-09	
37	3.700000e-01	-7.967639e-09	7.964590e-09	
38	3.800000e-01	-8.061978e-09	8.058809e-09	
39	3.900000e-01	-8.156891e-09	8.153598e-09	
40	4.000000e-01	-8.252397e-09	8.248976e-09	
41	4.100000e-01	-8.348515e-09	8.344963e-09	
42	4.200000e-01	-8.445264e-09	8.441575e-09	
43	4.300000e-01	-8.542661e-09	8.538832e-09	
44	4.400000e-01	-8.640722e-09	8.636748e-09	
45	4.500000e-01	-8.739464e-09	8.735341e-09	
46	4.600000e-01	-8.838903e-09	8.834626e-09	
47	4.700000e-01	-8.939055e-09	8.934619e-09	
48	4.800000e-01	-9.039935e-09	9.035335e-09	
49	4.900000e-01	-9.141557e-09	9.136788e-09	
50	5.000000e-01	-9.243936e-09	9.238993e-09	
51	5.100000e-01	-9.347086e-09	9.341965e-09	
52	5.200000e-01	-9.451022e-09	9.445716e-09	
53	5.300000e-01	-9.555756e-09	9.550260e-09	
54	5.400000e-01	-9.661303e-09	9.655612e-09	
55	5.500000e-01	-9.767676e-09	9.761783e-09	
56	5.600000e-01	-9.874887e-09	9.868788e-09	
57	5.700000e-01	-9.982951e-09	9.976639e-09	
58	5.800000e-01	-1.009188e-08	1.008535e-08	
59	5.900000e-01	-1.020168e-08	1.019493e-08	
60	6.000000e-01	-1.031238e-08	1.030539e-08	
61	6.100000e-01	-1.042398e-08	1.041675e-08	
62	6.200000e-01	-1.053649e-08	1.052902e-08	
63	6.300000e-01	-1.064993e-08	1.064221e-08	
64	6.400000e-01	-1.076431e-08	1.075633e-08	
65	6.500000e-01	-1.087965e-08	1.087140e-08	
66	6.600000e-01	-1.099594e-08	1.098742e-08	
67	6.700000e-01	-1.111321e-08	1.110441e-08	
68	6.800000e-01	-1.123147e-08	1.122238e-08	
69	6.900000e-01	-1.135073e-08	1.134135e-08	
70	7.000000e-01	-1.147101e-08	1.146132e-08	
71	7.100000e-01	-1.159230e-08	1.158230e-08	
72	7.200000e-01	-1.171464e-08	1.170431e-08	
73	7.300000e-01	-1.183802e-08	1.182737e-08	
74	7.400000e-01	-1.196246e-08	1.195147e-08	
75	7.500000e-01	-1.208797e-08	1.207663e-08	
76	7.600000e-01	-1.221456e-08	1.220288e-08	
77	7.700000e-01	-1.234225e-08	1.233020e-08	
78	7.800000e-01	-1.247105e-08	1.245863e-08	
79	7.900000e-01	-1.260097e-08	1.258816e-08	
80	8.000000e-01	-1.273202e-08	1.271882e-08	
81	8.100000e-01	-1.286422e-08	1.285061e-08	
82	8.200000e-01	-1.299757e-08	1.298355e-08	
83	8.300000e-01	-1.313208e-08	1.311765e-08	
84	8.400000e-01	-1.326778e-08	1.325291e-08	
85	8.500000e-01	-1.340467e-08	1.338936e-08	
86	8.600000e-01	-1.354276e-08	1.352700e-08	
87	8.700000e-01	-1.368207e-08	1.366584e-08	
88	8.800000e-01	-1.382261e-08	1.380590e-08	
89	8.900000e-01	-1.396439e-08	1.394719e-08	
90	9.000000e-01	-1.410743e-08	1.408973e-08	
91	9.100000e-01	-1.425173e-08	1.423351e-08	
92	9.200000e-01	-1.439731e-08	1.437857e-08	
93	9.300000e-01	-1.454418e-08	1.452490e-08	
94	9.400000e-01	-1.469236e-08	1.467252e-08	
95	9.500000e-01	-1.484185e-08	1.482145e-08	
96	9.600000e-01	-1.499267e-08	1.497169e-08	
97	9.700000e-01	-1.514483e-08	1.512327e-08	
98	9.800000e-01	-1.529835e-08	1.527618e-08	
99	9.900000e-01	-1.545324e-08	1.543044e-08	
100	1.000000e+00	-1.560951e-08	1.558608e-08	
101	1.010000e+00	-1.576717e-08	1.574309e-08	
102	1.020000e+00	-1.592624e-08	1.590149e-08	
103	1.030000e+00	-1.608673e-08	1.606130e-08	
104	1.040000e+00	-1.624866e-08	1.622253e-08	
105	1.050000e+00	-1.641203e-08	1.638519e-08	
106	1.060000e+00	-1.657687e-08	1.654929e-08	
107	1.070000e+00	-1.674318e-08	1.671486e-08	
108	1.080000e+00	-1.691099e-08	1.688189e-08	
109	1.090000e+00	-1.708029e-08	1.705041e-08	
110	1.100000e+00	-1.725112e-08	1.722042e-08	
111	1.110000e+00	-1.742347e-08	1.739195e-08	
112	1.120000e+00	-1.759737e-08	1.756500e-08	
113	1.130000e+00	-1.777284e-08	1.773959e-08	
114	1.140000e+00	-1.794987e-08	1.791574e-08	
115	1.150000e+00	-1.812850e-08	1.809345e-08	
116	1.160000e+00	-1.830873e-08	1.827275e-08	
117	1.170000e+00	-1.849058e-08	1.845363e-08	
118	1.180000e+00	-1.867406e-08	1.863613e-08	
119	1.190000e+00	-1.885920e-08	1.882025e-08	
120	0.000000e+00	1.843013e-17	1.843013e-17	
121	1.000000e-02	-2.972404e-08	2.972392e-08	
122	2.000000e-02	-5.160989e-08	5.160965e-08	
123	3.000000e-02	-6.683133e-08	6.683099e-08	
124	4.000000e-02	-7.695128e-08	7.695085e-08	
125	5.000000e-02	-8.361438e-08	8.361386e-08	
126	6.000000e-02	-8.816489e-08	8.816430e-08	
127	7.000000e-02	-9.149562e-08	9.149496e-08	
128	8.000000e-02	-9.412809e-08	9.412736e-08	
129	9.000000e-02	-9.635118e-08	9.635037e-08	
130	1.000000e-01	-9.832453e-08	9.832366e-08	
131	1.100000e-01	-1.001386e-07	1.001377e-07	
132	1.200000e-01	-1.018468e-07	1.018458e-07	
133	1.300000e-01	-1.034816e-07	1.034805e-07	
134	1.400000e-01	-1.050639e-07	1.050628e-07	
135	1.500000e-01	-1.066076e-07	1.066064e-07	
136	1.600000e-01	-1.081221e-07	1.081209e-07	
137	1.700000e-01	-1.096144e-07	1.096131e-07	
138	1.800000e-01	-1.110894e-07	1.110880e-07	
139	1.900000e-01	-1.125509e-07	1.125494e-07	
140	2.000000e-01	-1.140018e-07	1.140003e-07	
141	2.100000e-01	-1.154445e-07	1.154429e-07	
142	2.200000e-01	-1.168809e-07	1.168793e-07	
143	2.300000e-01	-1.183126e-07	1.183109e-07	
144	2.400000e-01	-1.197409e-07	1.197391e-07	
145	2.500000e-01	-1.211670e-07	1.211651e-07	
146	2.600000e-01	-1.225918e-07	1.225898e-07	
147	2.700000e-01	-1.240161e-07	1.240141e-07	
148	2.800000e-01	-1.254409e-07	1.254388e-07	
149	2.900000e-01	-1.268667e-07	1.268645e-07	
150	3.000000e-01	-1.282942e-07	1.282919e-07	
151	3.100000e-01	-1.297239e-07	1.297215e-07	
152	3.200000e-01	-1.311564e-07	1.311539e-07	
153	3.300000e-01	-1.325921e-07	1.325895e-07	
154	3.400000e-01	-1.340315e-07	1.340288e-07	
155	3.500000e-01	-1.354750e-07	1.354722e-07	
156	3.600000e-01	-1.369230e-07	1.369200e-07	
157	3.700000e-01	-1.383758e-07	1.383727e-07	
158	3.800000e-01	-1.398337e-07	1.398305e-07	
159	3.900000e-01	-1.412971e-07	1.412938e-07	
160	4.000000e-01	-1.427663e-07	1.427629e-07	
161	4.100000e-01	-1.442416e-07	1.442380e-07	
162	4.200000e-01	-1.457232e-07	1.457195e-07	
163	4.300000e-01	-1.472113e-07	1.472075e-07	
164	4.400000e-01	-1.487064e-07	1.487024e-07	
165	4.500000e-01	-1.502085e-07	1.502043e-07	
166	4.600000e-01	-1.517179e-07	1.517136e-07	
167	4.700000e-01	-1.532348e-07	1.532304e-07	
168	4.800000e-01	-1.547595e-07	1.547549e-07	
169	4.900000e-01	-1.562921e-07	1.562873e-07	
170	5.000000e-01	-1.578328e-07	1.578278e-07	
171	5.100000e-01	-1.593819e-07	1.593767e-07	
172	5.200000e-01	-1.609394e-07	1.609341e-07	
173	5.300000e-01	-1.625057e-07	1.625002e-07	
174	5.400000e-01	-1.640808e-07	1.640751e-07	
175	5.500000e-01	-1.656649e-07	1.656590e-07	
176	5.600000e-01	-1.672583e-07	1.672522e-07	
177	5.700000e-01	-1.688610e-07	1.688547e-07	
178	5.800000e-01	-1.704732e-07	1.704667e-07	
179	5.900000e-01	-1.720951e-07	1.720884e-07	
180	6.000000e-01	-1.737268e-07	1.737198e-07	
181	6.100000e-01	-1.753685e-07	1.753613e-07	
182	6.200000e-01	-1.770204e-07	1.770129e-07	
183	6.300000e-01	-1.786825e-07	1.786747e-07	
184	6.400000e-01	-1.803549e-07	1.803469e-07	
185	6.500000e-01	-1.820380e-07	1.820297e-07	
186	6.600000e-01	-1.837317e-07	1.837232e-07	
187	6.700000e-01	-1.854362e-07	1.854274e-07	
188	6.800000e-01	-1.871517e-07	1.871426e-07	
189	6.900000e-01	-1.888783e-07	1.888689e-07	
190	7.000000e-01	-1.906161e-07	1.906063e-07	
191	7.100000e-01	-1.923652e-07	1.923551e-07	
192	7.200000e-01	-1.941258e-07	1.941154e-07	
193	7.300000e-01	-1.958980e-07	1.958873e-07	
194	7.400000e-01	-1.976819e-07	1.976708e-07	
195	7.500000e-01	-1.994776e-07	1.994662e-07	
196	7.600000e-01	-2.012853e-07	2.012736e-07	
197	7.700000e-01	-2.031051e-07	2.030930e-07	
198	7.800000e-01	-2.049372e-07	2.049246e-07	
199	7.900000e-01	-2.067815e-07	2.067686e-07	
200	8.000000e-01	-2.086383e-07	2.086250e-07	
201	8.100000e-01	-2.105077e-07	2.104939e-07	
202	8.200000e-01	-2.123897e-07	2.123755e-07	
203	8.300000e-01	-2.142846e-07	2.142699e-07	
204	8.400000e-01	-2.161924e-07	2.161773e-07	
205	8.500000e-01	-2.181132e-07	2.180976e-07	
206	8.600000e-01	-2.200472e-07	2.200311e-07	
207	8.700000e-01	-2.219945e-07	2.219779e-07	
208	8.800000e-01	-2.239551e-07	2.239380e-07	
209	8.900000e-01	-2.259293e-07	2.259117e-07	
210	9.000000e-01	-2.279171e-07	2.278989e-07	
211	9.100000e-01	-2.299186e-07	2.298999e-07	
212	9.200000e-01	-2.319340e-07	2.319147e-07	
213	9.300000e-01	-2.339634e-07	2.339434e-07	
214	9.400000e-01	-2.360068e-07	2.359862e-07	
215	9.500000e-01	-2.380645e-07	2.380432e-07	
216	9.600000e-01	-2.401364e-07	2.401145e-07	
217	9.700000e-01	-2.422228e-07	2.422002e-07	
218	9.800000e-01	-2.443237e-07	2.443004e-07	
219	9.900000e-01	-2.464393e-07	2.464152e-07	
220	1.000000e+00	-2.485697e-07	2.485448e-07	
221	1.010000e+00	-2.507150e-07	2.506893e-07	
222	1.020000e+00	-2.528753e-07	2.528487e-07	
223	1.030000e+00	-2.550507e-07	2.550232e-07	
224	1.040000e+00	-2.572414e-07	2.572130e-07	
225	1.050000e+00	-2.594474e-07	2.594180e-07	
226	1.060000e+00	-2.616689e-07	2.616385e-07	
227	1.070000e+00	-2.639059e-07	2.638746e-07	
228	1.080000e+00	-2.661587e-07	2.661263e-07	
229	1.090000e+00	-2.684274e-07	2.683937e-07	
230	1.100000e+00	-2.707120e-07	2.706771e-07	
231	1.110000e+00	-2.730126e-07	2.729765e-07	
232	1.120000e+00	-2.753294e-07	2.752920e-07	
233	1.130000e+00	-2.776626e-07	2.776238e-07	
234	1.140000e+00	-2.800122e-07	2.799719e-07	
235	1.150000e+00	-2.823783e-07	2.823365e-07	
236	1.160000e+00	-2.847611e-07	2.847176e-07	
237	1.170000e+00	-2.871607e-07	2.871155e-07	
238	1.180000e+00	-2.895772e-07	2.895302e-07	
239	1.190000e+00	-2.920108e-07	2.919619e-07	
240	0.000000e+00	7.865259e-17	7.865259e-17	
241	1.000000e-02	-2.689272e-07	2.689270e-07	
242	2.000000e-02	-4.854089e-07	4.854086e-07	
243	3.000000e-02	-6.536206e-07	6.536203e-07	
244	4.000000e-02	-7.794713e-07	7.794709e-07	
245	5.000000e-02	-8.706476e-07	8.706471e-07	
246	6.000000e-02	-9.357802e-07	9.357796e-07	
247	7.000000e-02	-9.829490e-07	9.829483e-07	
248	8.000000e-02	-1.018495e-06	1.018494e-06	
249	9.000000e-02	-1.046754e-06	1.046753e-06	
250	1.000000e-01	-1.070451e-06	1.070450e-06	
251	1.100000e-01	-1.091235e-06	1.091234e-06	
252	1.200000e-01	-1.110099e-06	1.110098e-06	
253	1.300000e-01	-1.127651e-06	1.127650e-06	
254	1.400000e-01	-1.144273e-06	1.144272e-06	
255	1.500000e-01	-1.160213e-06	1.160212e-06	
256	1.600000e-01	-1.175638e-06	1.175636e-06	
257	1.700000e-01	-1.190660e-06	1.190659e-06	
258	1.800000e-01	-1.205363e-06	1.205362e-06	
259	1.900000e-01	-1.219807e-06	1.219805e-06	
260	2.000000e-01	-1.234036e-06	1.234034e-06	
261	2.100000e-01	-1.248086e-06	1.248084e-06	
262	2.200000e-01	-1.261984e-06	1.261982e-06	
263	2.300000e-01	-1.275753e-06	1.275752e-06	
264	2.400000e-01	-1.289412e-06	1.289410e-06	
265	2.500000e-01	-1.302976e-06	1.302974e-06	
266	2.600000e-01	-1.316458e-06	1.316456e-06	
267	2.700000e-01	-1.329869e-06	1.329867e-06	
268	2.800000e-01	-1.343220e-06	1.343218e-06	
269	2.900000e-01	-1.356519e-06	1.356516e-06	
270	3.000000e-01	-1.369773e-06	1.369771e-06	
271	3.100000e-01	-1.382991e-06	1.382988e-06	
272	3.200000e-01	-1.396177e-06	1.396174e-06	
273	3.300000e-01	-1.409338e-06	1.409335e-06	
274	3.400000e-01	-1.422479e-06	1.422476e-06	
275	3.500000e-01	-1.435604e-06	1.435601e-06	
276	3.600000e-01	-1.448718e-06	1.448715e-06	
277	3.700000e-01	-1.461825e-06	1.461822e-06	
278	3.800000e-01	-1.474929e-06	1.474926e-06	
279	3.900000e-01	-1.488033e-06	1.488030e-06	
280	4.000000e-01	-1.501141e-06	1.501138e-06	
281	4.100000e-01	-1.514255e-06	1.514251e-06	
282	4.200000e-01	-1.527378e-06	1.527375e-06	
283	4.300000e-01	-1.540514e-06	1.540510e-06	
284	4.400000e-01	-1.553664e-06	1.553660e-06	
285	4.500000e-01	-1.566830e-06	1.566826e-06	
286	4.600000e-01	-1.580017e-06	1.580012e-06	
287	4.700000e-01	-1.593224e-06	1.593219e-06	
288	4.800000e-01	-1.606455e-06	1.606450e-06	
289	4.900000e-01	-1.619711e-06	1.619706e-06	
290	5.000000e-01	-1.632994e-06	1.632989e-06	
291	5.100000e-01	-1.646306e-06	1.646300e-06	
292	5.200000e-01	-1.659648e-06	1.659643e-06	
293	5.300000e-01	-1.673023e-06	1.673017e-06	
294	5.400000e-01	-1.686431e-06	1.686425e-06	
295	5.500000e-01	-1.699874e-06	1.699868e-06	
296	5.600000e-01	-1.713354e-06	1.713348e-06	
297	5.700000e-01	-1.726871e-06	1.726865e-06	
298	5.800000e-01	-1.740428e-06	1.740421e-06	
299	5.900000e-01	-1.754025e-06	1.754018e-06	
300	6.000000e-01	-1.767663e-06	1.767656e-06	
301	6.100000e-01	-1.781344e-06	1.781337e-06	
302	6.200000e-01	-1.795069e-06	1.795062e-06	
303	6.300000e-01	-1.808839e-06	1.808831e-06	
304	6.400000e-01	-1.822655e-06	1.822647e-06	
305	6.500000e-01	-1.836517e-06	1.836509e-06	
306	6.600000e-01	-1.850427e-06	1.850419e-06	
307	6.700000e-01	-1.864387e-06	1.864378e-06	
308	6.800000e-01	-1.878395e-06	1.878386e-06	
309	6.900000e-01	-1.892454e-06	1.892445e-06	
310	7.000000e-01	-1.906565e-06	1.906555e-06	
311	7.100000e-01	-1.920728e-06	1.920718e-06	
312	7.200000e-01	-1.934944e-06	1.934933e-06	
313	7.300000e-01	-1.949213e-06	1.949202e-06	
314	7.400000e-01	-1.963538e-06	1.963526e-06	
315	7.500000e-01	-1.977917e-06	1.977905e-06	
316	7.600000e-01	-1.992352e-06	1.992340e-06	
317	7.700000e-01	-2.006845e-06	2.006832e-06	
318	7.800000e-01	-2.021394e-06	2.021381e-06	
319	7.900000e-01	-2.036002e-06	2.035988e-06	
320	8.000000e-01	-2.050668e-06	2.050654e-06	
321	8.100000e-01	-2.065393e-06	2.065379e-06	
322	8.200000e-01	-2.080179e-06	2.080164e-06	
323	8.300000e-01	-2.095025e-06	2.095009e-06	
324	8.400000e-01	-2.109932e-06	2.109916e-06	
325	8.500000e-01	-2.124901e-06	2.124884e-06	
326	8.600000e-01	-2.139933e-06	2.139915e-06	
327	8.700000e-01	-2.155027e-06	2.155009e-06	
328	8.800000e-01	-2.170185e-06	2.170166e-06	
329	8.900000e-01	-2.185406e-06	2.185387e-06	
330	9.000000e-01	-2.200693e-06	2.200672e-06	
331	9.100000e-01	-2.216044e-06	2.216022e-06	
332	9.200000e-01	-2.231461e-06	2.231438e-06	
333	9.300000e-01	-2.246943e-06	2.246920e-06	
334	9.400000e-01	-2.262493e-06	2.262468e-06	
335	9.500000e-01	-2.278109e-06	2.278083e-06	
336	9.600000e-01	-2.293793e-06	2.293766e-06	
337	9.700000e-01	-2.309545e-06	2.309517e-06	
338	9.800000e-01	-2.325365e-06	2.325336e-06	
339	9.900000e-01	-2.341255e-06	2.341223e-06	
340	1.000000e+00	-2.357213e-06	2.357180e-06	
341	1.010000e+00	-2.373242e-06	2.373207e-06	
342	1.020000e+00	-2.389340e-06	2.389304e-06	
343	1.030000e+00	-2.405510e-06	2.405472e-06	
344	1.040000e+00	-2.421750e-06	2.421710e-06	
345	1.050000e+00	-2.438063e-06	2.438020e-06	
346	1.060000e+00	-2.454447e-06	2.454402e-06	
347	1.070000e+00	-2.470903e-06	2.470856e-06	
348	1.080000e+00	-2.487433e-06	2.487382e-06	
349	1.090000e+00	-2.504035e-06	2.503982e-06	
350	1.100000e+00	-2.520712e-06	2.520655e-06	
351	1.110000e+00	-2.537462e-06	2.537401e-06	
352	1.120000e+00	-2.554287e-06	2.554222e-06	
353	1.130000e+00	-2.571187e-06	2.571118e-06	
354	1.140000e+00	-2.588162e-06	2.588089e-06	
355	1.150000e+00	-2.605213e-06	2.605134e-06	
356	1.160000e+00	-2.622340e-06	2.622256e-06	
357	1.170000e+00	-2.639544e-06	2.639453e-06	
358	1.180000e+00	-2.656824e-06	2.656727e-06	
359	1.190000e+00	-2.674182e-06	2.674078e-06	
360	0.000000e+00	2.215570e-16	2.215570e-16	
361	1.000000e-02	-1.068539e-06	1.068538e-06	
362	2.000000e-02	-2.020498e-06	2.020497e-06	
363	3.000000e-02	-2.859483e-06	2.859483e-06	
364	4.000000e-02	-3.589667e-06	3.589667e-06	
365	5.000000e-02	-4.216076e-06	4.216075e-06	
366	6.000000e-02	-4.744965e-06	4.744964e-06	
367	7.000000e-02	-5.184211e-06	5.184210e-06	
368	8.000000e-02	-5.543567e-06	5.543566e-06	
369	9.000000e-02	-5.834528e-06	5.834527e-06	
370	1.000000e-01	-6.069608e-06	6.069608e-06	
371	1.100000e-01	-6.261150e-06	6.261149e-06	
372	1.200000e-01	-6.420128e-06	6.420127e-06	
373	1.300000e-01	-6.555425e-06	6.555424e-06	
374	1.400000e-01	-6.673720e-06	6.673719e-06	
375	1.500000e-01	-6.779790e-06	6.779788e-06	
376	1.600000e-01	-6.876956e-06	6.876955e-06	
377	1.700000e-01	-6.967507e-06	6.967506e-06	
378	1.800000e-01	-7.053023e-06	7.053022e-06	
379	1.900000e-01	-7.134609e-06	7.134607e-06	
380	2.000000e-01	-7.213050e-06	7.213048e-06	
381	2.100000e-01	-7.288916e-06	7.288914e-06	
382	2.200000e-01	-7.362630e-06	7.362628e-06	
383	2.300000e-01	-7.434512e-06	7.434510e-06	
384	2.400000e-01	-7.504810e-06	7.504808e-06	
385	2.500000e-01	-7.573721e-06	7.573720e-06	
386	2.600000e-01	-7.641404e-06	7.641402e-06	
387	2.700000e-01	-7.707987e-06	7.707985e-06	
388	2.800000e-01	-7.773579e-06	7.773577e-06	
389	2.900000e-01	-7.838273e-06	7.838271e-06	
390	3.000000e-01	-7.902147e-06	7.902145e-06	
391	3.100000e-01	-7.965270e-06	7.965268e-06	
392	3.200000e-01	-8.027702e-06	8.027699e-06	
393	3.300000e-01	-8.089495e-06	8.089492e-06	
394	3.400000e-01	-8.150697e-06	8.150695e-06	
395	3.500000e-01	-8.211352e-06	8.211349e-06	
396	3.600000e-01	-8.271496e-06	8.271494e-06	
397	3.700000e-01	-8.331167e-06	8.331164e-06	
398	3.800000e-01	-8.390395e-06	8.390392e-06	
399	3.900000e-01	-8.449210e-06	8.449206e-06	
400	4.000000e-01	-8.507639e-06	8.507635e-06	
401	4.100000e-01	-8.565707e-06	8.565703e-06	
402	4.200000e-01	-8.623437e-06	8.623433e-06	
403	4.300000e-01	-8.680851e-06	8.680847e-06	
404	4.400000e-01	-8.737969e-06	8.737965e-06	
405	4.500000e-01	-8.794809e-06	8.794805e-06	
406	4.600000e-01	-8.851389e-06	8.851385e-06	
407	4.700000e-01	-8.907726e-06	8.907722e-06	
408	4.800000e-01	-8.963836e-06	8.963831e-06	
409	4.900000e-01	-9.019731e-06	9.019726e-06	
410	5.000000e-01	-9.075427e-06	9.075422e-06	
411	5.100000e-01	-9.130936e-06	9.130930e-06	
412	5.200000e-01	-9.186270e-06	9.186264e-06	
413	5.300000e-01	-9.241440e-06	9.241435e-06	
414	5.400000e-01	-9.296459e-06	9.296453e-06	
415	5.500000e-01	-9.351335e-06	9.351329e-06	
416	5.600000e-01	-9.406079e-06	9.406073e-06	
417	5.700000e-01	-9.460700e-06	9.460694e-06	
418	5.800000e-01	-9.515207e-06	9.515200e-06	
419	5.900000e-01	-9.569608e-06	9.569601e-06	
420	6.000000e-01	-9.623911e-06	9.623904e-06	
421	6.100000e-01	-9.678124e-06	9.678117e-06	
422	6.200000e-01	-9.732254e-06	9.732246e-06	
423	6.300000e-01	-9.786308e-06	9.786300e-06	
424	6.400000e-01	-9.840292e-06	9.840283e-06	
425	6.500000e-01	-9.894213e-06	9.894204e-06	
426	6.600000e-01	-9.948076e-06	9.948067e-06	
427	6.700000e-01	-1.000189e-05	1.000188e-05	
428	6.800000e-01	-1.005565e-05	1.005564e-05	
429	6.900000e-01	-1.010938e-05	1.010937e-05	
430	7.000000e-01	-1.016307e-05	1.016306e-05	
431	7.100000e-01	-1.021673e-05	1.021672e-05	
432	7.200000e-01	-1.027036e-05	1.027035e-05	
433	7.300000e-01	-1.032397e-05	1.032396e-05	
434	7.400000e-01	-1.037756e-05	1.037755e-05	
435	7.500000e-01	-1.043114e-05	1.043113e-05	
436	7.600000e-01	-1.048471e-05	1.048470e-05	
437	7.700000e-01	-1.053828e-05	1.053826e-05	
438	7.800000e-01	-1.059184e-05	1.059182e-05	
439	7.900000e-01	-1.064540e-05	1.064538e-05	
440	8.000000e-01	-1.069897e-05	1.069895e-05	
441	8.100000e-01	-1.075254e-05	1.075252e-05	
442	8.200000e-01	-1.080613e-05	1.080611e-05	
443	8.300000e-01	-1.085973e-05	1.085971e-05	
444	8.400000e-01	-1.091334e-05	1.091332e-05	
445	8.500000e-01	-1.096698e-05	1.096696e-05	
446	8.600000e-01	-1.102063e-05	1.102061e-05	
447	8.700000e-01	-1.107432e-05	1.107429e-05	
448	8.800000e-01	-1.112803e-05	1.112800e-05	
449	8.900000e-01	-1.118176e-05	1.118174e-05	
450	9.000000e-01	-1.123554e-05	1.123551e-05	
451	9.100000e-01	-1.128934e-05	1.128931e-05	
452	9.200000e-01	-1.134318e-05	1.134315e-05	
453	9.300000e-01	-1.139706e-05	1.139703e-05	
454	9.400000e-01	-1.145098e-05	1.145095e-05	
455	9.500000e-01	-1.150494e-05	1.150491e-05	
456	9.600000e-01	-1.155895e-05	1.155891e-05	
457	9.700000e-01	-1.161300e-05	1.161296e-05	
458	9.800000e-01	-1.166710e-05	1.166706e-05	
459	9.900000e-01	-1.172125e-05	1.172120e-05	
460	1.000000e+00	-1.177545e-05	1.177540e-05	
461	1.010000e+00	-1.182971e-05	1.182965e-05	
462	1.020000e+00	-1.188402e-05	1.188396e-05	
463	1.030000e+00	-1.193838e-05	1.193831e-05	
464	1.040000e+00	-1.199280e-05	1.199273e-05	
465	1.050000e+00	-1.204728e-05	1.204721e-05	
466	1.060000e+00	-1.210182e-05	1.210174e-05	
467	1.070000e+00	-1.215643e-05	1.215634e-05	
468	1.080000e+00	-1.221109e-05	1.221099e-05	
469	1.090000e+00	-1.226582e-05	1.226571e-05	
470	1.100000e+00	-1.232061e-05	1.232050e-05	
471	1.110000e+00	-1.237548e-05	1.237535e-05	
472	1.120000e+00	-1.243040e-05	1.243027e-05	
473	1.130000e+00	-1.248540e-05	1.248526e-05	
474	1.140000e+00	-1.254047e-05	1.254031e-05	
475	1.150000e+00	-1.259561e-05	1.259544e-05	
476	1.160000e+00	-1.265082e-05	1.265063e-05	
477	1.170000e+00	-1.270611e-05	1.270590e-05	
478	1.180000e+00	-1.276147e-05	1.276124e-05	
479	1.190000e+00	-1.281690e-05	1.281666e-05	
480	0.000000e+00	5.380166e-16	5.380166e-16	
481	1.000000e-02	-2.269477e-06	2.269477e-06	
482	2.000000e-02	-4.383091e-06	4.383091e-06	
483	3.000000e-02	-6.344285e-06	6.344285e-06	
484	4.000000e-02	-8.156547e-06	8.156547e-06	
485	5.000000e-02	-9.823454e-06	9.823453e-06	
486	6.000000e-02	-1.134874e-05	1.134874e-05	
487	7.000000e-02	-1.273638e-05	1.273638e-05	
488	8.000000e-02	-1.399071e-05	1.399071e-05	
489	9.000000e-02	-1.511660e-05	1.511660e-05	
490	1.000000e-01	-1.611963e-05	1.611963e-05	
491	1.100000e-01	-1.700631e-05	1.700631e-05	
492	1.200000e-01	-1.778431e-05	1.778431e-05	
493	1.300000e-01	-1.846262e-05	1.846262e-05	
494	1.400000e-01	-1.905149e-05	1.905149e-05	
495	1.500000e-01	-1.956219e-05	1.956218e-05	
496	1.600000e-01	-2.000642e-05	2.000642e-05	
497	1.700000e-01	-2.039564e-05	2.039564e-05	
498	1.800000e-01	-2.074034e-05	2.074033e-05	
499	1.900000e-01	-2.104956e-05	2.104956e-05	
500	2.000000e-01	-2.133075e-05	2.133075e-05	
501	2.100000e-01	-2.158976e-05	2.158975e-05	
502	2.200000e-01	-2.183110e-05	2.183110e-05	
503	2.300000e-01	-2.205822e-05	2.205821e-05	
504	2.400000e-01	-2.227368e-05	2.227368e-05	
505	2.500000e-01	-2.247945e-05	2.247945e-05	
506	2.600000e-01	-2.267703e-05	2.267703e-05	
507	2.700000e-01	-2.286758e-05	2.286758e-05	
508	2.800000e-01	-2.305199e-05	2.305199e-05	
509	2.900000e-01	-2.323100e-05	2.323099e-05	
510	3.000000e-01	-2.340517e-05	2.340517e-05	
511	3.100000e-01	-2.357501e-05	2.357500e-05	
512	3.200000e-01	-2.374089e-05	2.374089e-05	
513	3.300000e-01	-2.390317e-05	2.390317e-05	
514	3.400000e-01	-2.406213e-05	2.406213e-05	
515	3.500000e-01	-2.421802e-05	2.421802e-05	
516	3.600000e-01	-2.437106e-05	2.437106e-05	
517	3.700000e-01	-2.452145e-05	2.452145e-05	
518	3.800000e-01	-2.466936e-05	2.466936e-05	
519	3.900000e-01	-2.481494e-05	2.481494e-05	
520	4.000000e-01	-2.495834e-05	2.495834e-05	
521	4.100000e-01	-2.509968e-05	2.509968e-05	
522	4.200000e-01	-2.523908e-05	2.523907e-05	
523	4.300000e-01	-2.537664e-05	2.537663e-05	
524	4.400000e-01	-2.551246e-05	2.551245e-05	
525	4.500000e-01	-2.564663e-05	2.564663e-05	
526	4.600000e-01	-2.577925e-05	2.577924e-05	
527	4.700000e-01	-2.591038e-05	2.591037e-05	
528	4.800000e-01	-2.604009e-05	2.604009e-05	
529	4.900000e-01	-2.616846e-05	2.616846e-05	
530	5.000000e-01	-2.629555e-05	2.629555e-05	
531	5.100000e-01	-2.642142e-05	2.642142e-05	
532	5.200000e-01	-2.654613e-05	2.654612e-05	
533	5.300000e-01	-2.666972e-05	2.666971e-05	
534	5.400000e-01	-2.679224e-05	2.679224e-05	
535	5.500000e-01	-2.691375e-05	2.691375e-05	
536	5.600000e-01	-2.703429e-05	2.703428e-05	
537	5.700000e-01	-2.715389e-05	2.715389e-05	
538	5.800000e-01	-2.727261e-05	2.727260e-05	
539	5.900000e-01	-2.739047e-05	2.739046e-05	
540	6.000000e-01	-2.750751e-05	2.750750e-05	
541	6.100000e-01	-2.762376e-05	2.762375e-05	
542	6.200000e-01	-2.773926e-05	2.773925e-05	
543	6.300000e-01	-2.785404e-05	2.785403e-05	
544	6.400000e-01	-2.796812e-05	2.796811e-05	
545	6.500000e-01	-2.808154e-05	2.808153e-05	
546	6.600000e-01	-2.819431e-05	2.819430e-05	
547	6.700000e-01	-2.830647e-05	2.830646e-05	
548	6.800000e-01	-2.841804e-05	2.841803e-05	
549	6.900000e-01	-2.852903e-05	2.852902e-05	
550	7.000000e-01	-2.863948e-05	2.863947e-05	
551	7.100000e-01	-2.874940e-05	2.874939e-05	
552	7.200000e-01	-2.885882e-05	2.885880e-05	
553	7.300000e-01	-2.896774e-05	2.896773e-05	
554	7.400000e-01	-2.907620e-05	2.907619e-05	
555	7.500000e-01	-2.918420e-05	2.918419e-05	
556	7.600000e-01	-2.929177e-05	2.929175e-05	
557	7.700000e-01	-2.939892e-05	2.939890e-05	
558	7.800000e-01	-2.950566e-05	2.950564e-05	
559	7.900000e-01	-2.961201e-05	2.961199e-05	
560	8.000000e-01	-2.971799e-05	2.971797e-05	
561	8.100000e-01	-2.982360e-05	2.982358e-05	
562	8.200000e-01	-2.992887e-05	2.992885e-05	
563	8.300000e-01	-3.003380e-05	3.003378e-05	
564	8.400000e-01	-3.013840e-05	3.013838e-05	
565	8.500000e-01	-3.024269e-05	3.024267e-05	
566	8.600000e-01	-3.034668e-05	3.034666e-05	
567	8.700000e-01	-3.045038e-05	3.045035e-05	
568	8.800000e-01	-3.055380e-05	3.055377e-05	
569	8.900000e-01	-3.065695e-05	3.065692e-05	
570	9.000000e-01	-3.075983e-05	3.075980e-05	
571	9.100000e-01	-3.086247e-05	3.086243e-05	
572	9.200000e-01	-3.096486e-05	3.096482e-05	
573	9.300000e-01	-3.106702e-05	3.106698e-05	
574	9.400000e-01	-3.116895e-05	3.116891e-05	
575	9.500000e-01	-3.127067e-05	3.127062e-05	
576	9.600000e-01	-3.137217e-05	3.137212e-05	
577	9.700000e-01	-3.147347e-05	3.147342e-05	
578	9.800000e-01	-3.157458e-05	3.157452e-05	
579	9.900000e-01	-3.167550e-05	3.167543e-05	
580	1.000000e+00	-3.177624e-05	3.177617e-05	
581	1.010000e+00	-3.187680e-05	3.187672e-05	
582	1.020000e+00	-3.197720e-05	3.197711e-05	
583	1.030000e+00	-3.207743e-05	3.207734e-05	
584	1.040000e+00	-3.217751e-05	3.217741e-05	
585	1.050000e+00	-3.227744e-05	3.227733e-05	
586	1.060000e+00	-3.237722e-05	3.237710e-05	
587	1.070000e+00	-3.247687e-05	3.247673e-05	
588	1.080000e+00	-3.257638e-05	3.257623e-05	
589	1.090000e+00	-3.267576e-05	3.267560e-05	
590	1.100000e+00	-3.277502e-05	3.277484e-05	
591	1.110000e+00	-3.287416e-05	3.287396e-05	
592	1.120000e+00	-3.297319e-05	3.297297e-05	
593	1.130000e+00	-3.307210e-05	3.307187e-05	
594	1.140000e+00	-3.317092e-05	3.317066e-05	
595	1.150000e+00	-3.326963e-05	3.326934e-05	
596	1.160000e+00	-3.336824e-05	3.336793e-05	
597	1.170000e+00	-3.346677e-05	3.346642e-05	
598	1.180000e+00	-3.356521e-05	3.356483e-05	
599	1.190000e+00	-3.366356e-05	3.366314e-05	
600	0.000000e+00	1.193720e-15	1.193720e-15	
601	1.000000e-02	-3.511533e-06	3.511532e-06	
602	2.000000e-02	-6.844800e-06	6.844800e-06	
603	3.000000e-02	-1.000334e-05	1.000334e-05	
604	4.000000e-02	-1.299065e-05	1.299065e-05	
605	5.000000e-02	-1.581018e-05	1.581018e-05	
606	6.000000e-02	-1.846536e-05	1.846536e-05	
607	7.000000e-02	-2.095961e-05	2.095961e-05	
608	8.000000e-02	-2.329638e-05	2.329638e-05	
609	9.000000e-02	-2.547918e-05	2.547917e-05	
610	1.000000e-01	-2.751159e-05	2.751159e-05	
611	1.100000e-01	-2.939738e-05	2.939738e-05	
612	1.200000e-01	-3.114051e-05	3.114051e-05	
613	1.300000e-01	-3.274526e-05	3.274526e-05	
614	1.400000e-01	-3.421631e-05	3.421631e-05	
615	1.500000e-01	-3.555891e-05	3.555890e-05	
616	1.600000e-01	-3.677897e-05	3.677897e-05	
617	1.700000e-01	-3.788324e-05	3.788324e-05	
618	1.800000e-01	-3.887938e-05	3.887938e-05	
619	1.900000e-01	-3.977598e-05	3.977598e-05	
620	2.000000e-01	-4.058245e-05	4.058245e-05	
621	2.100000e-01	-4.130876e-05	4.130876e-05	
622	2.200000e-01	-4.196508e-05	4.196508e-05	
623	2.300000e-01	-4.256126e-05	4.256126e-05	
624	2.400000e-01	-4.310648e-05	4.310647e-05	
625	2.500000e-01	-4.360889e-05	4.360888e-05	
626	2.600000e-01	-4.407548e-05	4.407548e-05	
627	2.700000e-01	-4.451209e-05	4.451209e-05	
628	2.800000e-01	-4.492346e-05	4.492346e-05	
629	2.900000e-01	-4.531343e-05	4.531343e-05	
630	3.000000e-01	-4.568505e-05	4.568504e-05	
631	3.100000e-01	-4.604077e-05	4.604077e-05	
632	3.200000e-01	-4.638257e-05	4.638257e-05	
633	3.300000e-01	-4.671204e-05	4.671204e-05	
634	3.400000e-01	-4.703050e-05	4.703050e-05	
635	3.500000e-01	-4.733902e-05	4.733902e-05	
636	3.600000e-01	-4.763851e-05	4.763851e-05	
637	3.700000e-01	-4.792974e-05	4.792974e-05	
638	3.800000e-01	-4.821337e-05	4.821337e-05	
639	3.900000e-01	-4.848997e-05	4.848996e-05	
640	4.000000e-01	-4.876003e-05	4.876002e-05	
641	4.100000e-01	-4.902399e-05	4.902399e-05	
642	4.200000e-01	-4.928226e-05	4.928226e-05	
643	4.300000e-01	-4.953518e-05	4.953517e-05	
644	4.400000e-01	-4.978306e-05	4.978306e-05	
645	4.500000e-01	-5.002620e-05	5.002619e-05	
646	4.600000e-01	-5.026485e-05	5.026485e-05	
647	4.700000e-01	-5.049926e-05	5.049926e-05	
648	4.800000e-01	-5.072965e-05	5.072965e-05	
649	4.900000e-01	-5.095622e-05	5.095622e-05	
650	5.000000e-01	-5.117916e-05	5.117916e-05	
651	5.100000e-01	-5.139865e-05	5.139864e-05	
652	5.200000e-01	-5.161484e-05	5.161484e-05	
653	5.300000e-01	-5.182790e-05	5.182789e-05	
654	5.400000e-01	-5.203796e-05	5.203795e-05	
655	5.500000e-01	-5.224515e-05	5.224515e-05	
656	5.600000e-01	-5.244961e-05	5.244961e-05	
657	5.700000e-01	-5.265145e-05	5.265145e-05	
658	5.800000e-01	-5.285079e-05	5.285078e-05	
659	5.900000e-01	-5.304771e-05	5.304771e-05	
660	6.000000e-01	-5.324233e-05	5.324233e-05	
661	6.100000e-01	-5.343474e-05	5.343473e-05	
662	6.200000e-01	-5.362503e-05	5.362502e-05	
663	6.300000e-01	-5.381327e-05	5.381326e-05	
664	6.400000e-01	-5.399955e-05	5.399954e-05	
665	6.500000e-01	-5.418395e-05	5.418394e-05	
666	6.600000e-01	-5.436653e-05	5.436652e-05	
667	6.700000e-01	-5.454736e-05	5.454735e-05	
668	6.800000e-01	-5.472651e-05	5.472650e-05	
669	6.900000e-01	-5.490404e-05	5.490403e-05	
670	7.000000e-01	-5.508001e-05	5.508000e-05	
671	7.100000e-01	-5.525447e-05	5.525445e-05	
672	7.200000e-01	-5.542747e-05	5.542746e-05	
673	7.300000e-01	-5.559907e-05	5.559906e-05	
674	7.400000e-01	-5.576932e-05	5.576931e-05	
675	7.500000e-01	-5.593826e-05	5.593825e-05	
676	7.600000e-01	-5.610594e-05	5.610592e-05	
677	7.700000e-01	-5.627239e-05	5.627237e-05	
678	7.800000e-01	-5.643766e-05	5.643765e-05	
679	7.900000e-01	-5.660179e-05	5.660178e-05	
680	8.000000e-01	-5.676482e-05	5.676480e-05	
681	8.100000e-01	-5.692678e-05	5.692676e-05	
682	8.200000e-01	-5.708770e-05	5.708768e-05	
683	8.300000e-01	-5.724762e-05	5.724760e-05	
684	8.400000e-01	-5.740657e-05	5.740654e-05	
685	8.500000e-01	-5.756458e-05	5.756455e-05	
686	8.600000e-01	-5.772168e-05	5.772165e-05	
687	8.700000e-01	-5.787789e-05	5.787786e-05	
688	8.800000e-01	-5.803325e-05	5.803322e-05	
689	8.900000e-01	-5.818778e-05	5.818775e-05	
690	9.000000e-01	-5.834151e-05	5.834147e-05	
691	9.100000e-01	-5.849445e-05	5.849441e-05	
692	9.200000e-01	-5.864664e-05	5.864660e-05	
693	9.300000e-01	-5.879809e-05	5.879804e-05	
694	9.400000e-01	-5.894883e-05	5.894878e-05	
695	9.500000e-01	-5.909887e-05	5.909881e-05	
696	9.600000e-01	-5.924824e-05	5.924818e-05	
697	9.700000e-01	-5.939696e-05	5.939689e-05	
698	9.800000e-01	-5.954504e-05	5.954497e-05	
699	9.900000e-01	-5.969250e-05	5.969242e-05	
700	1.000000e+00	-5.983937e-05	5.983928e-05	
701	1.010000e+00	-5.998565e-05	5.998555e-05	
702	1.020000e+00	-6.013136e-05	6.013126e-05	
703	1.030000e+00	-6.027653e-05	6.027641e-05	
704	1.040000e+00	-6.042116e-05	6.042103e-05	
705	1.050000e+00	-6.056526e-05	6.056512e-05	
706	1.060000e+00	-6.070886e-05	6.070871e-05	
707	1.070000e+00	-6.085197e-05	6.085180e-05	
708	1.080000e+00	-6.099460e-05	6.099441e-05	
709	1.090000e+00	-6.113676e-05	6.113655e-05	
710	1.100000e+00	-6.127847e-05	6.127824e-05	
711	1.110000e+00	-6.141973e-05	6.141948e-05	
712	1.120000e+00	-6.156057e-05	6.156029e-05	
713	1.130000e+00	-6.170099e-05	6.170068e-05	
714	1.140000e+00	-6.184100e-05	6.184066e-05	
715	1.150000e+00	-6.198061e-05	6.198025e-05	
716	1.160000e+00	-6.211984e-05	6.211944e-05	
717	1.170000e+00	-6.225869e-05	6.225825e-05	
718	1.180000e+00	-6.239718e-05	6.239669e-05	
719	1.190000e+00	-6.253531e-05	6.253478e-05	
720	0.000000e+00	2.481328e-15	2.481328e-15	
721	1.000000e-02	-4.671876e-06	4.671876e-06	
722	2.000000e-02	-9.151814e-06	9.151814e-06	
723	3.000000e-02	-1.344340e-05	1.344340e-05	
724	4.000000e-02	-1.755013e-05	1.755013e-05	
725	5.000000e-02	-2.147547e-05	2.147547e-05	
726	6.000000e-02	-2.522280e-05	2.522280e-05	
727	7.000000e-02	-2.879544e-05	2.879544e-05	
728	8.000000e-02	-3.219670e-05	3.219670e-05	
729	9.000000e-02	-3.542982e-05	3.542982e-05	
730	1.000000e-01	-3.849804e-05	3.849803e-05	
731	1.100000e-01	-4.140458e-05	4.140458e-05	
732	1.200000e-01	-4.415269e-05	4.415269e-05	
733	1.300000e-01	-4.674565e-05	4.674564e-05	
734	1.400000e-01	-4.918678e-05	4.918678e-05	
735	1.500000e-01	-5.147954e-05	5.147954e-05	
736	1.600000e-01	-5.362751e-05	5.362750e-05	
737	1.700000e-01	-5.563447e-05	5.563447e-05	
738	1.800000e-01	-5.750451e-05	5.750451e-05	
739	1.900000e-01	-5.924202e-05	5.924202e-05	
740	2.000000e-01	-6.085188e-05	6.085188e-05	
741	2.100000e-01	-6.233948e-05	6.233948e-05	
742	2.200000e-01	-6.371085e-05	6.371085e-05	
743	2.300000e-01	-6.497271e-05	6.497271e-05	
744	2.400000e-01	-6.613247e-05	6.613247e-05	
745	2.500000e-01	-6.719815e-05	6.719815e-05	
746	2.600000e-01	-6.817828e-05	6.817827e-05	
747	2.700000e-01	-6.908157e-05	6.908157e-05	
748	2.800000e-01	-6.991670e-05	6.991669e-05	
749	2.900000e-01	-7.069196e-05	7.069196e-05	
750	3.000000e-01	-7.141504e-05	7.141504e-05	
751	3.100000e-01	-7.209282e-05	7.209282e-05	
752	3.200000e-01	-7.273129e-05	7.273129e-05	
753	3.300000e-01	-7.333559e-05	7.333559e-05	
754	3.400000e-01	-7.391005e-05	7.391005e-05	
755	3.500000e-01	-7.445829e-05	7.445828e-05	
756	3.600000e-01	-7.498330e-05	7.498330e-05	
757	3.700000e-01	-7.548761e-05	7.548761e-05	
758	3.800000e-01	-7.597330e-05	7.597330e-05	
759	3.900000e-01	-7.644214e-05	7.644214e-05	
760	4.000000e-01	-7.689562e-05	7.689562e-05	
761	4.100000e-01	-7.733502e-05	7.733502e-05	
762	4.200000e-01	-7.776145e-05	7.776144e-05	
763	4.300000e-01	-7.817585e-05	7.817585e-05	
764	4.400000e-01	-7.857908e-05	7.857907e-05	
765	4.500000e-01	-7.897188e-05	7.897187e-05	
766	4.600000e-01	-7.935491e-05	7.935490e-05	
767	4.700000e-01	-7.972877e-05	7.972877e-05	
768	4.800000e-01	-8.009400e-05	8.009400e-05	
769	4.900000e-01	-8.045110e-05	8.045109e-05	
770	5.000000e-01	-8.080049e-05	8.080049e-05	
771	5.100000e-01	-8.114261e-05	8.114260e-05	
772	5.200000e-01	-8.147781e-05	8.147781e-05	
773	5.300000e-01	-8.180645e-05	8.180645e-05	
774	5.400000e-01	-8.212886e-05	8.212885e-05	
775	5.500000e-01	-8.244532e-05	8.244531e-05	
776	5.600000e-01	-8.275612e-05	8.275611e-05	
777	5.700000e-01	-8.306151e-05	8.306151e-05	
778	5.800000e-01	-8.336175e-05	8.336175e-05	
779	5.900000e-01	-8.365706e-05	8.365705e-05	
780	6.000000e-01	-8.394765e-05	8.394764e-05	
781	6.100000e-01	-8.423371e-05	8.423371e-05	
782	6.200000e-01	-8.451546e-05	8.451545e-05	
783	6.300000e-01	-8.479305e-05	8.479304e-05	
784	6.400000e-01	-8.506666e-05	8.506665e-05	
785	6.500000e-01	-8.533644e-05	8.533643e-05	
786	6.600000e-01	-8.560255e-05	8.560254e-05	
787	6.700000e-01	-8.586514e-05	8.586513e-05	
788	6.800000e-01	-8.612432e-05	8.612431e-05	
789	6.900000e-01	-8.638024e-05	8.638023e-05	
790	7.000000e-01	-8.663302e-05	8.663301e-05	
791	7.100000e-01	-8.688276e-05	8.688275e-05	
792	7.200000e-01	-8.712958e-05	8.712957e-05	
793	7.300000e-01	-8.737359e-05	8.737358e-05	
794	7.400000e-01	-8.761488e-05	8.761487e-05	
795	7.500000e-01	-8.785356e-05	8.785354e-05	
796	7.600000e-01	-8.808970e-05	8.808968e-05	
797	7.700000e-01	-8.832339e-05	8.832338e-05	
798	7.800000e-01	-8.855473e-05	8.855471e-05	
799	7.900000e-01	-8.878379e-05	8.878377e-05	
800	8.000000e-01	-8.901063e-05	8.901061e-05	
801	8.100000e-01	-8.923535e-05	8.923533e-05	
802	8.200000e-01	-8.945800e-05	8.945797e-05	
803	8.300000e-01	-8.967864e-05	8.967862e-05	
804	8.400000e-01	-8.989736e-05	8.989733e-05	
805	8.500000e-01	-9.011420e-05	9.011417e-05	
806	8.600000e-01	-9.032922e-05	9.032919e-05	
807	8.700000e-01	-9.054248e-05	9.054245e-05	
808	8.800000e-01	-9.075404e-05	9.075400e-05	
809	8.900000e-01	-9.096394e-05	9.096390e-05	
810	9.000000e-01	-9.117223e-05	9.117219e-05	
811	9.100000e-01	-9.137897e-05	9.137893e-05	
812	9.200000e-01	-9.158419e-05	9.158415e-05	
813	9.300000e-01	-9.178795e-05	9.178790e-05	
814	9.400000e-01	-9.199028e-05	9.199023e-05	
815	9.500000e-01	-9.219123e-05	9.219117e-05	
816	9.600000e-01	-9.239083e-05	9.239077e-05	
817	9.700000e-01	-9.258913e-05	9.258906e-05	
818	9.800000e-01	-9.278615e-05	9.278608e-05	
819	9.900000e-01	-9.298194e-05	9.298186e-05	
820	1.000000e+00	-9.317653e-05	9.317644e-05	
821	1.010000e+00	-9.336995e-05	9.336985e-05	
822	1.020000e+00	-9.356224e-05	9.356212e-05	
823	1.030000e+00	-9.375342e-05	9.375329e-05	
824	1.040000e+00	-9.394352e-05	9.394338e-05	
825	1.050000e+00	-9.413257e-05	9.413242e-05	
826	1.060000e+00	-9.432060e-05	9.432044e-05	
827	1.070000e+00	-9.450765e-05	9.450746e-05	
828	1.080000e+00	-9.469372e-05	9.469351e-05	
829	1.090000e+00	-9.487885e-05	9.487862e-05	
830	1.100000e+00	-9.506306e-05	9.506281e-05	
831	1.110000e+00	-9.524638e-05	9.524611e-05	
832	1.120000e+00	-9.542883e-05	9.542852e-05	
833	1.130000e+00	-9.561042e-05	9.561009e-05	
834	1.140000e+00	-9.579119e-05	9.579082e-05	
835	1.150000e+00	-9.597115e-05	9.597074e-05	
836	1.160000e+00	-9.615032e-05	9.614987e-05	
837	1.170000e+00	-9.632873e-05	9.632823e-05	
838	1.180000e+00	-9.650639e-05	9.650584e-05	
839	1.190000e+00	-9.668331e-05	9.668271e-05	
840	0.000000e+00	4.920616e-15	4.920616e-15	
841	1.000000e-02	-5.727477e-06	5.727477e-06	
842	2.000000e-02	-1.125468e-05	1.125468e-05	
843	3.000000e-02	-1.658518e-05	1.658518e-05	
844	4.000000e-02	-2.172242e-05	2.172242e-05	
845	5.000000e-02	-2.666983e-05	2.666983e-05	
846	6.000000e-02	-3.143074e-05	3.143074e-05	
847	7.000000e-02	-3.600842e-05	3.600842e-05	
848	8.000000e-02	-4.040608e-05	4.040608e-05	
849	9.000000e-02	-4.462688e-05	4.462687e-05	
850	1.000000e-01	-4.867392e-05	4.867392e-05	
851	1.100000e-01	-5.255028e-05	5.255028e-05	
852	1.200000e-01	-5.625898e-05	5.625897e-05	
853	1.300000e-01	-5.980301e-05	5.980301e-05	
854	1.400000e-01	-6.318538e-05	6.318537e-05	
855	1.500000e-01	-6.640904e-05	6.640903e-05	
856	1.600000e-01	-6.947698e-05	6.947698e-05	
857	1.700000e-01	-7.239222e-05	7.239222e-05	
858	1.800000e-01	-7.515781e-05	7.515781e-05	
859	1.900000e-01	-7.777689e-05	7.777689e-05	
860	2.000000e-01	-8.025269e-05	8.025269e-05	
861	2.100000e-01	-8.258860e-05	8.258860e-05	
862	2.200000e-01	-8.478821e-05	8.478821e-05	
863	2.300000e-01	-8.685535e-05	8.685535e-05	
864	2.400000e-01	-8.879417e-05	8.879416e-05	
865	2.500000e-01	-9.060918e-05	9.060918e-05	
866	2.600000e-01	-9.230538e-05	9.230538e-05	
867	2.700000e-01	-9.388825e-05	9.388824e-05	
868	2.800000e-01	-9.536378e-05	9.536378e-05	
869	2.900000e-01	-9.673854e-05	9.673853e-05	
870	3.000000e-01	-9.801952e-05	9.801952e-05	
871	3.100000e-01	-9.921410e-05	9.921410e-05	
872	3.200000e-01	-1.003298e-04	1.003298e-04	
873	3.300000e-01	-1.013742e-04	1.013742e-04	
874	3.400000e-01	-1.023545e-04	1.023545e-04	
875	3.500000e-01	-1.032777e-04	1.032776e-04	
876	3.600000e-01	-1.041499e-04	1.041498e-04	
877	3.700000e-01	-1.049768e-04	1.049768e-04	
878	3.800000e-01	-1.057634e-04	1.057634e-04	
879	3.900000e-01	-1.065140e-04	1.065140e-04	
880	4.000000e-01	-1.072323e-04	1.072323e-04	
881	4.100000e-01	-1.079214e-04	1.079214e-04	
882	4.200000e-01	-1.085843e-04	1.085843e-04	
883	4.300000e-01	-1.092231e-04	1.092231e-04	
884	4.400000e-01	-1.098399e-04	1.098399e-04	
885	4.500000e-01	-1.104364e-04	1.104364e-04	
886	4.600000e-01	-1.110142e-04	1.110142e-04	
887	4.700000e-01	-1.115747e-04	1.115747e-04	
888	4.800000e-01	-1.121189e-04	1.121189e-04	
889	4.900000e-01	-1.126480e-04	1.126480e-04	
890	5.000000e-01	-1.131629e-04	1.131629e-04	
891	5.100000e-01	-1.136645e-04	1.136645e-04	
892	5.200000e-01	-1.141535e-04	1.141535e-04	
893	5.300000e-01	-1.146307e-04	1.146307e-04	
894	5.400000e-01	-1.150966e-04	1.150966e-04	
895	5.500000e-01	-1.155519e-04	1.155519e-04	
896	5.600000e-01	-1.159970e-04	1.159970e-04	
897	5.700000e-01	-1.164326e-04	1.164326e-04	
898	5.800000e-01	-1.168591e-04	1.168591e-04	
899	5.900000e-01	-1.172769e-04	1.172769e-04	
900	6.000000e-01	-1.176864e-04	1.176864e-04	
901	6.100000e-01	-1.180880e-04	1.180880e-04	
902	6.200000e-01	-1.184820e-04	1.184820e-04	
903	6.300000e-01	-1.188688e-04	1.188688e-04	
904	6.400000e-01	-1.192487e-04	1.192487e-04	
905	6.500000e-01	-1.196219e-04	1.196219e-04	
906	6.600000e-01	-1.199888e-04	1.199888e-04	
907	6.700000e-01	-1.203497e-04	1.203497e-04	
908	6.800000e-01	-1.207046e-04	1.207046e-04	
909	6.900000e-01	-1.210540e-04	1.210540e-04	
910	7.000000e-01	-1.213980e-04	1.213979e-04	
911	7.100000e-01	-1.217367e-04	1.217367e-04	
912	7.200000e-01	-1.220705e-04	1.220705e-04	
913	7.300000e-01	-1.223995e-04	1.223995e-04	
914	7.400000e-01	-1.227239e-04	1.227238e-04	
915	7.500000e-01	-1.230438e-04	1.230437e-04	
916	7.600000e-01	-1.233594e-04	1.233593e-04	
917	7.700000e-01	-1.236708e-04	1.236708e-04	
918	7.800000e-01	-1.239783e-04	1.239783e-04	
919	7.900000e-01	-1.242819e-04	1.242819e-04	
920	8.000000e-01	-1.245817e-04	1.245817e-04	
921	8.100000e-01	-1.248780e-04	1.248780e-04	
922	8.200000e-01	-1.251708e-04	1.251708e-04	
923	8.300000e-01	-1.254602e-04	1.254602e-04	
924	8.400000e-01	-1.257464e-04	1.257463e-04	
925	8.500000e-01	-1.260294e-04	1.260293e-04	
926	8.600000e-01	-1.263093e-04	1.263093e-04	
927	8.700000e-01	-1.265863e-04	1.265863e-04	
928	8.800000e-01	-1.268605e-04	1.268604e-04	
929	8.900000e-01	-1.271319e-04	1.271318e-04	
930	9.000000e-01	-1.274005e-04	1.274005e-04	
931	9.100000e-01	-1.276666e-04	1.276666e-04	
932	9.200000e-01	-1.279302e-04	1.279301e-04	
933	9.300000e-01	-1.281913e-04	1.281912e-04	
934	9.400000e-01	-1.284500e-04	1.284500e-04	
935	9.500000e-01	-1.287064e-04	1.287064e-04	
936	9.600000e-01	-1.289606e-04	1.289606e-04	
937	9.700000e-01	-1.292126e-04	1.292126e-04	
938	9.800000e-01	-1.294625e-04	1.294624e-04	
939	9.900000e-01	-1.297103e-04	1.297103e-04	
940	1.000000e+00	-1.299562e-04	1.299561e-04	
941	1.010000e+00	-1.302001e-04	1.302000e-04	
942	1.020000e+00	-1.304421e-04	1.304420e-04	
943	1.030000e+00	-1.306822e-04	1.306821e-04	
944	1.040000e+00	-1.309206e-04	1.309205e-04	
945	1.050000e+00	-1.311573e-04	1.311571e-04	
946	1.060000e+00	-1.313922e-04	1.313920e-04	
947	1.070000e+00	-1.316255e-04	1.316253e-04	
948	1.080000e+00	-1.318572e-04	1.318570e-04	
949	1.090000e+00	-1.320873e-04	1.320871e-04	
950	1.100000e+00	-1.323159e-04	1.323157e-04	
951	1.110000e+00	-1.325431e-04	1.325428e-04	
952	1.120000e+00	-1.327687e-04	1.327684e-04	
953	1.130000e+00	-1.329930e-04	1.329927e-04	
954	1.140000e+00	-1.332159e-04	1.332155e-04	
955	1.150000e+00	-1.334375e-04	1.334370e-04	
956	1.160000e+00	-1.336577e-04	1.336572e-04	
957	1.170000e+00	-1.338767e-04	1.338762e-04	
958	1.180000e+00	-1.340944e-04	1.340938e-04	
959	1.190000e+00	-1.343109e-04	1.343103e-04	
960	0.000000e+00	9.422639e-15	9.422639e-15	
961	1.000000e-02	-6.675632e-06	6.675632e-06	
962	2.000000e-02	-1.314644e-05	1.314644e-05	
963	3.000000e-02	-1.941588e-05	1.941588e-05	
964	4.000000e-02	-2.548735e-05	2.548735e-05	
965	5.000000e-02	-3.136416e-05	3.136416e-05	
966	6.000000e-02	-3.704955e-05	3.704955e-05	
967	7.000000e-02	-4.254671e-05	4.254671e-05	
968	8.000000e-02	-4.785876e-05	4.785876e-05	
969	9.000000e-02	-5.298876e-05	5.298876e-05	
970	1.000000e-01	-5.793972e-05	5.793972e-05	
971	1.100000e-01	-6.271460e-05	6.271460e-05	
972	1.200000e-01	-6.731629e-05	6.731629e-05	
973	1.300000e-01	-7.174766e-05	7.174766e-05	
974	1.400000e-01	-7.601152e-05	7.601152e-05	
975	1.500000e-01	-8.011067e-05	8.011067e-05	
976	1.600000e-01	-8.404785e-05	8.404785e-05	
977	1.700000e-01	-8.782580e-05	8.782580e-05	
978	1.800000e-01	-9.144724e-05	9.144724e-05	
979	1.900000e-01	-9.491488e-05	9.491488e-05	
980	2.000000e-01	-9.823144e-05	9.823144e-05	
981	2.100000e-01	-1.013997e-04	1.013997e-04	
982	2.200000e-01	-1.044223e-04	1.044223e-04	
983	2.300000e-01	-1.073023e-04	1.073023e-04	
984	2.400000e-01	-1.100425e-04	1.100425e-04	
985	2.500000e-01	-1.126459e-04	1.126459e-04	
986	2.600000e-01	-1.151157e-04	1.151157e-04	
987	2.700000e-01	-1.174554e-04	1.174554e-04	
988	2.800000e-01	-1.196685e-04	1.196685e-04	
989	2.900000e-01	-1.217588e-04	1.217588e-04	
990	3.000000e-01	-1.237308e-04	1.237308e-04	
991	3.100000e-01	-1.255888e-04	1.255888e-04	
992	3.200000e-01	-1.273380e-04	1.273380e-04	
993	3.300000e-01	-1.289839e-04	1.289839e-04	
994	3.400000e-01	-1.305321e-04	1.305321e-04	
995	3.500000e-01	-1.319891e-04	1.319891e-04	
996	3.600000e-01	-1.333611e-04	1.333611e-04	
997	3.700000e-01	-1.346548e-04	1.346548e-04	
998	3.800000e-01	-1.358766e-04	1.358766e-04	
999	3.900000e-01	-1.370330e-04	1.370330e-04	
1000	4.000000e-01	-1.381299e-04	1.381299e-04	
1001	4.100000e-01	-1.391729e-04	1.391729e-04	
1002	4.200000e-01	-1.401671e-04	1.401671e-04	
1003	4.300000e-01	-1.411170e-04	1.411170e-04	
1004	4.400000e-01	-1.420268e-04	1.420268e-04	
1005	4.500000e-01	-1.429000e-04	1.429000e-04	
1006	4.600000e-01	-1.437397e-04	1.437397e-04	
1007	4.700000e-01	-1.445488e-04	1.445488e-04	
1008	4.800000e-01	-1.453295e-04	1.453295e-04	
1009	4.900000e-01	-1.460841e-04	1.460841e-04	
1010	5.000000e-01	-1.468144e-04	1.468143e-04	
1011	5.100000e-01	-1.475220e-04	1.475220e-04	
1012	5.200000e-01	-1.482085e-04	1.482085e-04	
1013	5.300000e-01	-1.488752e-04	1.488752e-04	
1014	5.400000e-01	-1.495233e-04	1.495233e-04	
1015	5.500000e-01	-1.501539e-04	1.501539e-04	
1016	5.600000e-01	-1.507680e-04	1.507679e-04	
1017	5.700000e-01	-1.513664e-04	1.513664e-04	
1018	5.800000e-01	-1.519500e-04	1.519500e-04	
1019	5.900000e-01	-1.525196e-04	1.525196e-04	
1020	6.000000e-01	-1.530758e-04	1.530758e-04	
1021	6.100000e-01	-1.536194e-04	1.536194e-04	
1022	6.200000e-01	-1.541509e-04	1.541509e-04	
1023	6.300000e-01	-1.546709e-04	1.546709e-04	
1024	6.400000e-01	-1.551799e-04	1.551799e-04	
1025	6.500000e-01	-1.556784e-04	1.556784e-04	
1026	6.600000e-01	-1.561669e-04	1.561669e-04	
1027	6.700000e-01	-1.566458e-04	1.566458e-04	
1028	6.800000e-01	-1.571156e-04	1.571155e-04	
1029	6.900000e-01	-1.575765e-04	1.575765e-04	
1030	7.000000e-01	-1.580290e-04	1.580290e-04	
1031	7.100000e-01	-1.584734e-04	1.584733e-04	
1032	7.200000e-01	-1.589100e-04	1.589100e-04	
1033	7.300000e-01	-1.593391e-04	1.593391e-04	
1034	7.400000e-01	-1.597611e-04	1.597611e-04	
1035	7.500000e-01	-1.601761e-04	1.601761e-04	
1036	7.600000e-01	-1.605845e-04	1.605845e-04	
1037	7.700000e-01	-1.609865e-04	1.609865e-04	
1038	7.800000e-01	-1.613824e-04	1.613824e-04	
1039	7.900000e-01	-1.617723e-04	1.617723e-04	
1040	8.000000e-01	-1.621564e-04	1.621564e-04	
1041	8.100000e-01	-1.625351e-04	1.625350e-04	
1042	8.200000e-01	-1.629084e-04	1.629083e-04	
1043	8.300000e-01	-1.632765e-04	1.632765e-04	
1044	8.400000e-01	-1.636396e-04	1.636396e-04	
1045	8.500000e-01	-1.639980e-04	1.639980e-04	
1046	8.600000e-01	-1.643517e-04	1.643517e-04	
1047	8.700000e-01	-1.647009e-04	1.647008e-04	
1048	8.800000e-01	-1.650457e-04	1.650457e-04	
1049	8.900000e-01	-1.653863e-04	1.653863e-04	
1050	9.000000e-01	-1.657229e-04	1.657228e-04	
1051	9.100000e-01	-1.660555e-04	1.660554e-04	
1052	9.200000e-01	-1.663842e-04	1.663842e-04	
1053	9.300000e-01	-1.667093e-04	1.667092e-04	
1054	9.400000e-01	-1.670307e-04	1.670307e-04	
1055	9.500000e-01	-1.673487e-04	1.673486e-04	
1056	9.600000e-01	-1.676633e-04	1.676632e-04	
1057	9.700000e-01	-1.679746e-04	1.679745e-04	
1058	9.800000e-01	-1.682827e-04	1.682826e-04	
1059	9.900000e-01	-1.685877e-04	1.685876e-04	
1060	1.000000e+00	-1.688897e-04	1.688896e-04	
1061	1.010000e+00	-1.691887e-04	1.691886e-04	
1062	1.020000e+00	-1.694850e-04	1.694849e-04	
1063	1.030000e+00	-1.697785e-04	1.697783e-04	
1064	1.040000e+00	-1.700692e-04	1.700691e-04	
1065	1.050000e+00	-1.703574e-04	1.703573e-04	
1066	1.060000e+00	-1.706431e-04	1.706429e-04	
1067	1.070000e+00	-1.709262e-04	1.709261e-04	
1068	1.080000e+00	-1.712070e-04	1.712068e-04	
1069	1.090000e+00	-1.714854e-04	1.714852e-04	
1070	1.100000e+00	-1.717616e-04	1.717614e-04	
1071	1.110000e+00	-1.720355e-04	1.720353e-04	
1072	1.120000e+00	-1.723073e-04	1.723070e-04	
1073	1.130000e+00	-1.725770e-04	1.725766e-04	
1074	1.140000e+00	-1.728446e-04	1.728442e-04	
1075	1.150000e+00	-1.731102e-04	1.731098e-04	
1076	1.160000e+00	-1.733739e-04	1.733734e-04	
1077	1.170000e+00	-1.736357e-04	1.736351e-04	
1078	1.180000e+00	-1.738956e-04	1.738950e-04	
1079	1.190000e+00	-1.741537e-04	1.741530e-04	
1080	0.000000e+00	1.756510e-14	1.756510e-14	
1081	1.000000e-02	-7.518533e-06	7.518533e-06	
1082	2.000000e-02	-1.483056e-05	1.483056e-05	
1083	3.000000e-02	-2.193942e-05	2.193942e-05	
1084	4.000000e-02	-2.884835e-05	2.884835e-05	
1085	5.000000e-02	-3.556055e-05	3.556055e-05	
1086	6.000000e-02	-4.207915e-05	4.207915e-05	
1087	7.000000e-02	-4.840720e-05	4.840720e-05	
1088	8.000000e-02	-5.454771e-05	5.454771e-05	
1089	9.000000e-02	-6.050362e-05	6.050362e-05	
1090	1.000000e-01	-6.627783e-05	6.627783e-05	
1091	1.100000e-01	-7.187317e-05	7.187317e-05	
1092	1.200000e-01	-7.729243e-05	7.729243e-05	
1093	1.300000e-01	-8.253835e-05	8.253835e-05	
1094	1.400000e-01	-8.761361e-05	8.761361e-05	
1095	1.500000e-01	-9.252087e-05	9.252087e-05	
1096	1.600000e-01	-9.726274e-05	9.726274e-05	
1097	1.700000e-01	-1.018418e-04	1.018418e-04	
1098	1.800000e-01	-1.062606e-04	1.062606e-04	
1099	1.900000e-01	-1.105216e-04	1.105216e-04	
1100	2.000000e-01	-1.146273e-04	1.146273e-04	
1101	2.100000e-01	-1.185802e-04	1.185802e-04	
1102	2.200000e-01	-1.223828e-04	1.223828e-04	
1103	2.300000e-01	-1.260375e-04	1.260375e-04	
1104	2.400000e-01	-1.295467e-04	1.295467e-04	
1105	2.500000e-01	-1.329131e-04	1.329131e-04	
1106	2.600000e-01	-1.361390e-04	1.361390e-04	
1107	2.700000e-01	-1.392271e-04	1.392271e-04	
1108	2.800000e-01	-1.421800e-04	1.421800e-04	
1109	2.900000e-01	-1.450003e-04	1.450003e-04	
1110	3.000000e-01	-1.476911e-04	1.476911e-04	
1111	3.100000e-01	-1.502551e-04	1.502551e-04	
1112	3.200000e-01	-1.526957e-04	1.526957e-04	
1113	3.300000e-01	-1.550162e-04	1.550162e-04	
1114	3.400000e-01	-1.572202e-04	1.572202e-04	
1115	3.500000e-01	-1.593118e-04	1.593118e-04	
1116	3.600000e-01	-1.612951e-04	1.612951e-04	
1117	3.700000e-01	-1.631748e-04	1.631748e-04	
1118	3.800000e-01	-1.649558e-04	1.649558e-04	
1119	3.900000e-01	-1.666433e-04	1.666433e-04	
1120	4.000000e-01	-1.682430e-04	1.682429e-04	
1121	4.100000e-01	-1.697603e-04	1.697603e-04	
1122	4.200000e-01	-1.712011e-04	1.712011e-04	
1123	4.300000e-01	-1.725710e-04	1.725710e-04	
1124	4.400000e-01	-1.738756e-04	1.738756e-04	
1125	4.500000e-01	-1.751201e-04	1.751201e-04	
1126	4.600000e-01	-1.763094e-04	1.763094e-04	
1127	4.700000e-01	-1.774480e-04	1.774480e-04	
1128	4.800000e-01	-1.785400e-04	1.785400e-04	
1129	4.900000e-01	-1.795893e-04	1.795893e-04	
1130	5.000000e-01	-1.805990e-04	1.805990e-04	
1131	5.100000e-01	-1.815722e-04	1.815722e-04	
1132	5.200000e-01	-1.825116e-04	1.825116e-04	
1133	5.300000e-01	-1.834195e-04	1.834195e-04	
1134	5.400000e-01	-1.842981e-04	1.842981e-04	
1135	5.500000e-01	-1.851492e-04	1.851492e-04	
1136	5.600000e-01	-1.859746e-04	1.859746e-04	
1137	5.700000e-01	-1.867758e-04	1.867758e-04	
1138	5.800000e-01	-1.875543e-04	1.875543e-04	
1139	5.900000e-01	-1.883113e-04	1.883113e-04	
1140	6.000000e-01	-1.890480e-04	1.890480e-04	
1141	6.100000e-01	-1.897655e-04	1.897655e-04	
1142	6.200000e-01	-1.904648e-04	1.904648e-04	
1143	6.300000e-01	-1.911467e-04	1.911467e-04	
1144	6.400000e-01	-1.918122e-04	1.918122e-04	
1145	6.500000e-01	-1.924621e-04	1.924621e-04	
1146	6.600000e-01	-1.930970e-04	1.930970e-04	
1147	6.700000e-01	-1.937176e-04	1.937176e-04	
1148	6.800000e-01	-1.943247e-04	1.943247e-04	
1149	6.900000e-01	-1.949187e-04	1.949187e-04	
1150	7.000000e-01	-1.955003e-04	1.955003e-04	
1151	7.100000e-01	-1.960700e-04	1.960700e-04	
1152	7.200000e-01	-1.966283e-04	1.966283e-04	
1153	7.300000e-01	-1.971756e-04	1.971756e-04	
1154	7.400000e-01	-1.977124e-04	1.977124e-04	
1155	7.500000e-01	-1.982392e-04	1.982392e-04	
1156	7.600000e-01	-1.987562e-04	1.987562e-04	
1157	7.700000e-01	-1.992640e-04	1.992640e-04	
1158	7.800000e-01	-1.997628e-04	1.997628e-04	
1159	7.900000e-01	-2.002530e-04	2.002530e-04	
1160	8.000000e-01	-2.007349e-04	2.007349e-04	
1161	8.100000e-01	-2.012088e-04	2.012088e-04	
1162	8.200000e-01	-2.016750e-04	2.016750e-04	
1163	8.300000e-01	-2.021337e-04	2.021337e-04	
1164	8.400000e-01	-2.025853e-04	2.025853e-04	
1165	8.500000e-01	-2.030300e-04	2.030300e-04	
1166	8.600000e-01	-2.034680e-04	2.034680e-04	
1167	8.700000e-01	-2.038996e-04	2.038996e-04	
1168	8.800000e-01	-2.043249e-04	2.043249e-04	
1169	8.900000e-01	-2.047442e-04	2.047442e-04	
1170	9.000000e-01	-2.051577e-04	2.051576e-04	
1171	9.100000e-01	-2.055655e-04	2.055654e-04	
1172	9.200000e-01	-2.059678e-04	2.059678e-04	
1173	9.300000e-01	-2.063649e-04	2.063649e-04	
1174	9.400000e-01	-2.067569e-04	2.067568e-04	
1175	9.500000e-01	-2.071439e-04	2.071438e-04	
1176	9.600000e-01	-2.075261e-04	2.075260e-04	
1177	9.700000e-01	-2.079036e-04	2.079036e-04	
1178	9.800000e-01	-2.082766e-04	2.082766e-04	
1179	9.900000e-01	-2.086453e-04	2.086452e-04	
1180	1.000000e+00	-2.090097e-04	2.090096e-04	
1181	1.010000e+00	-2.093699e-04	2.093698e-04	
1182	1.020000e+00	-2.097262e-04	2.097260e-04	
1183	1.030000e+00	-2.100785e-04	2.100784e-04	
1184	1.040000e+00	-2.104271e-04	2.104269e-04	
1185	1.050000e+00	-2.107719e-04	2.107718e-04	
1186	1.060000e+00	-2.111133e-04	2.111131e-04	
1187	1.070000e+00	-2.114511e-04	2.114509e-04	
1188	1.080000e+00	-2.117855e-04	2.117854e-04	
1189	1.090000e+00	-2.121167e-04	2.121165e-04	
1190	1.100000e+00	-2.124447e-04	2.124444e-04	
1191	1.110000e+00	-2.127695e-04	2.127693e-04	
1192	1.120000e+00	-2.130914e-04	2.130911e-04	
1193	1.130000e+00	-2.134102e-04	2.134099e-04	
1194	1.140000e+00	-2.137263e-04	2.137259e-04	
1195	1.150000e+00	-2.140395e-04	2.140391e-04	
1196	1.160000e+00	-2.143499e-04	2.143495e-04	
1197	1.170000e+00	-2.146578e-04	2.146573e-04	
1198	1.180000e+00	-2.149630e-04	2.149624e-04	
1199	1.190000e+00	-2.152657e-04	2.152651e-04	
1200	0.000000e+00	3.205386e-14	3.205386e-14	
1201	1.000000e-02	-8.260585e-06	8.260585e-06	
1202	2.000000e-02	-1.631525e-05	1.631525e-05	
1203	3.000000e-02	-2.416715e-05	2.416715e-05	
1204	4.000000e-02	-3.181939e-05	3.181939e-05	
1205	5.000000e-02	-3.927499e-05	3.927499e-05	
1206	6.000000e-02	-4.653694e-05	4.653694e-05	
1207	7.000000e-02	-5.360815e-05	5.360815e-05	
1208	8.000000e-02	-6.049148e-05	6.049148e-05	
1209	9.000000e-02	-6.718975e-05	6.718975e-05	
1210	1.000000e-01	-7.370571e-05	7.370570e-05	
1211	1.100000e-01	-8.004205e-05	8.004205e-05	
1212	1.200000e-01	-8.620145e-05	8.620145e-05	
1213	1.300000e-01	-9.218651e-05	9.218651e-05	
1214	1.400000e-01	-9.799979e-05	9.799979e-05	
1215	1.500000e-01	-1.036438e-04	1.036438e-04	
1216	1.600000e-01	-1.091211e-04	1.091211e-04	
1217	1.700000e-01	-1.144340e-04	1.144340e-04	
1218	1.800000e-01	-1.195849e-04	1.195849e-04	
1219	1.900000e-01	-1.245763e-04	1.245763e-04	
1220	2.000000e-01	-1.294105e-04	1.294105e-04	
1221	2.100000e-01	-1.340898e-04	1.340898e-04	
1222	2.200000e-01	-1.386164e-04	1.386164e-04	
1223	2.300000e-01	-1.429926e-04	1.429926e-04	
1224	2.400000e-01	-1.472206e-04	1.472206e-04	
1225	2.500000e-01	-1.513028e-04	1.513028e-04	
1226	2.600000e-01	-1.552412e-04	1.552412e-04	
1227	2.700000e-01	-1.590382e-04	1.590382e-04	
1228	2.800000e-01	-1.626959e-04	1.626959e-04	
1229	2.900000e-01	-1.662166e-04	1.662166e-04	
1230	3.000000e-01	-1.696026e-04	1.696026e-04	
1231	3.100000e-01	-1.728561e-04	1.728561e-04	
1232	3.200000e-01	-1.759796e-04	1.759796e-04	
1233	3.300000e-01	-1.789755e-04	1.789755e-04	
1234	3.400000e-01	-1.818462e-04	1.818462e-04	
1235	3.500000e-01	-1.845946e-04	1.845946e-04	
1236	3.600000e-01	-1.872233e-04	1.872233e-04	
1237	3.700000e-01	-1.897355e-04	1.897355e-04	
1238	3.800000e-01	-1.921341e-04	1.921341e-04	
1239	3.900000e-01	-1.944227e-04	1.944227e-04	
1240	4.000000e-01	-1.966050e-04	1.966050e-04	
1241	4.100000e-01	-1.986848e-04	1.986848e-04	
1242	4.200000e-01	-2.006664e-04	2.006664e-04	
1243	4.300000e-01	-2.025542e-04	2.025542e-04	
1244	4.400000e-01	-2.043531e-04	2.043531e-04	
1245	4.500000e-01	-2.060678e-04	2.060678e-04	
1246	4.600000e-01	-2.077034e-04	2.077034e-04	
1247	4.700000e-01	-2.092649e-04	2.092649e-04	
1248	4.800000e-01	-2.107572e-04	2.107571e-04	
1249	4.900000e-01	-2.121851e-04	2.121851e-04	
1250	5.000000e-01	-2.135532e-04	2.135532e-04	
1251	5.100000e-01	-2.148659e-04	2.148659e-04	
1252	5.200000e-01	-2.161271e-04	2.161271e-04	
1253	5.300000e-01	-2.173406e-04	2.173406e-04	
1254	5.400000e-01	-2.185097e-04	2.185097e-04	
1255	5.500000e-01	-2.196374e-04	2.196374e-04	
1256	5.600000e-01	-2.207267e-04	2.207267e-04	
1257	5.700000e-01	-2.217799e-04	2.217799e-04	
1258	5.800000e-01	-2.227994e-04	2.227994e-04	
1259	5.900000e-01	-2.237872e-04	2.237872e-04	
1260	6.000000e-01	-2.247452e-04	2.247452e-04	
1261	6.100000e-01	-2.256752e-04	2.256752e-04	
1262	6.200000e-01	-2.265787e-04	2.265787e-04	
1263	6.300000e-01	-2.274572e-04	2.274572e-04	
1264	6.400000e-01	-2.283119e-04	2.283119e-04	
1265	6.500000e-01	-2.291441e-04	2.291441e-04	
1266	6.600000e-01	-2.299549e-04	2.299549e-04	
1267	6.700000e-01	-2.307454e-04	2.307454e-04	
1268	6.800000e-01	-2.315165e-04	2.315165e-04	
1269	6.900000e-01	-2.322692e-04	2.322691e-04	
1270	7.000000e-01	-2.330042e-04	2.330042e-04	
1271	7.100000e-01	-2.337224e-04	2.337224e-04	
1272	7.200000e-01	-2.344246e-04	2.344246e-04	
1273	7.300000e-01	-2.351113e-04	2.351113e-04	
1274	7.400000e-01	-2.357834e-04	2.357834e-04	
1275	7.500000e-01	-2.364413e-04	2.364413e-04	
1276	7.600000e-01	-2.370857e-04	2.370857e-04	
1277	7.700000e-01	-2.377171e-04	2.377171e-04	
1278	7.800000e-01	-2.383360e-04	2.383360e-04	
1279	7.900000e-01	-2.389430e-04	2.389430e-04	
1280	8.000000e-01	-2.395384e-04	2.395384e-04	
1281	8.100000e-01	-2.401228e-04	2.401228e-04	
1282	8.200000e-01	-2.406965e-04	2.406965e-04	
1283	8.300000e-01	-2.412600e-04	2.412599e-04	
1284	8.400000e-01	-2.418135e-04	2.418135e-04	
1285	8.500000e-01	-2.423575e-04	2.423575e-04	
1286	8.600000e-01	-2.428924e-04	2.428923e-04	
1287	8.700000e-01	-2.434183e-04	2.434183e-04	
1288	8.800000e-01	-2.439357e-04	2.439357e-04	
1289	8.900000e-01	-2.444449e-04	2.444449e-04	
1290	9.000000e-01	-2.449461e-04	2.449460e-04	
1291	9.100000e-01	-2.454395e-04	2.454395e-04	
1292	9.200000e-01	-2.459255e-04	2.459255e-04	
1293	9.300000e-01	-2.464043e-04	2.464042e-04	
1294	9.400000e-01	-2.468761e-04	2.468760e-04	
1295	9.500000e-01	-2.473411e-04	2.473411e-04	
1296	9.600000e-01	-2.477996e-04	2.477996e-04	
1297	9.700000e-01	-2.482518e-04	2.482517e-04	
1298	9.800000e-01	-2.486978e-04	2.486978e-04	
1299	9.900000e-01	-2.491379e-04	2.491378e-04	
1300	1.000000e+00	-2.495722e-04	2.495721e-04	
1301	1.010000e+00	-2.500009e-04	2.500008e-04	
1302	1.020000e+00	-2.504242e-04	2.504241e-04	
1303	1.030000e+00	-2.508423e-04	2.508421e-04	
1304	1.040000e+00	-2.512552e-04	2.512551e-04	
1305	1.050000e+00	-2.516631e-04	2.516630e-04	
1306	1.060000e+00	-2.520663e-04	2.520661e-04	
1307	1.070000e+00	-2.524647e-04	2.524645e-04	
1308	1.080000e+00	-2.528586e-04	2.528584e-04	
1309	1.090000e+00	-2.532481e-04	2.532479e-04	
1310	1.100000e+00	-2.536332e-04	2.536330e-04	
1311	1.110000e+00	-2.540142e-04	2.540140e-04	
1312	1.120000e+00	-2.543911e-04	2.543908e-04	
1313	1.130000e+00	-2.547641e-04	2.547638e-04	
1314	1.140000e+00	-2.551332e-04	2.551328e-04	
1315	1.150000e+00	-2.554985e-04	2.554981e-04	
1316	1.160000e+00	-2.558602e-04	2.558598e-04	
1317	1.170000e+00	-2.562183e-04	2.562178e-04	
1318	1.180000e+00	-2.565730e-04	2.565725e-04	
1319	1.190000e+00	-2.569243e-04	2.569237e-04	

CPU time since last call: 0.060 seconds.

Total CPU time: 0.060 seconds.

Current dynamic memory usage = 270336,
Dynamic memory limit = -9547777.

